* edge_detector.spice
* File autogenerated by json2spice.py

* Subcircuit Definition
.subckt edge_detector2 clk reset comp.5 comp.6 comp.7 comp.8 comp.9 enable.5 enable.6 enable.7 enable.8 enable.9 VGND VNB VPB VPWR

* Standard Cells
x__0__ comp.5 comp_prev.0 VGND VNB VPB VPWR enable.5 sky130_fd_sc_hd__lpflow_isobufsrc_1
x__1__ comp.6 comp_prev.1 VGND VNB VPB VPWR enable.6 sky130_fd_sc_hd__lpflow_isobufsrc_1
x__2__ comp.7 comp_prev.2 VGND VNB VPB VPWR enable.7 sky130_fd_sc_hd__lpflow_isobufsrc_1
x__3__ comp.8 comp_prev.3 VGND VNB VPB VPWR enable.8 sky130_fd_sc_hd__lpflow_isobufsrc_1
x__4__ comp.9 comp_prev.4 VGND VNB VPB VPWR enable.9 sky130_fd_sc_hd__lpflow_isobufsrc_1
x__5__ comp.9 reset VGND VNB VPB VPWR __19__ sky130_fd_sc_hd__lpflow_isobufsrc_1
x__6__ comp.5 reset VGND VNB VPB VPWR __20__ sky130_fd_sc_hd__lpflow_isobufsrc_1
x__7__ comp.6 reset VGND VNB VPB VPWR __21__ sky130_fd_sc_hd__lpflow_isobufsrc_1
x__8__ comp.7 reset VGND VNB VPB VPWR __22__ sky130_fd_sc_hd__lpflow_isobufsrc_1
x__9__ comp.8 reset VGND VNB VPB VPWR __23__ sky130_fd_sc_hd__lpflow_isobufsrc_1
x__10__ clk __19__ VGND VNB VPB VPWR comp_prev.4 sky130_fd_sc_hd__dfxtp_1
x__11__ clk __20__ VGND VNB VPB VPWR comp_prev.0 sky130_fd_sc_hd__dfxtp_1
x__12__ clk __21__ VGND VNB VPB VPWR comp_prev.1 sky130_fd_sc_hd__dfxtp_1
x__13__ clk __22__ VGND VNB VPB VPWR comp_prev.2 sky130_fd_sc_hd__dfxtp_1
x__14__ clk __23__ VGND VNB VPB VPWR comp_prev.3 sky130_fd_sc_hd__dfxtp_1

* Tieoffs

.ends

