* edge_detector.spice
* File autogenerated by json2spice.py

* Subcircuit Definition
.subckt edge_detector3 clk reset comp.10 comp.11 comp.12 comp.13 comp.14 enable.10 enable.11 enable.12 enable.13 enable.14 VGND VNB VPB VPWR

* Standard Cells
x__0__ comp.10 comp_prev.0 VGND VNB VPB VPWR enable.10 sky130_fd_sc_hd__lpflow_isobufsrc_1
x__1__ comp.11 comp_prev.1 VGND VNB VPB VPWR enable.11 sky130_fd_sc_hd__lpflow_isobufsrc_1
x__2__ comp.12 comp_prev.2 VGND VNB VPB VPWR enable.12 sky130_fd_sc_hd__lpflow_isobufsrc_1
x__3__ comp.13 comp_prev.3 VGND VNB VPB VPWR enable.13 sky130_fd_sc_hd__lpflow_isobufsrc_1
x__4__ comp.14 comp_prev.4 VGND VNB VPB VPWR enable.14 sky130_fd_sc_hd__lpflow_isobufsrc_1
x__5__ comp.14 reset VGND VNB VPB VPWR __19__ sky130_fd_sc_hd__lpflow_isobufsrc_1
x__6__ comp.10 reset VGND VNB VPB VPWR __20__ sky130_fd_sc_hd__lpflow_isobufsrc_1
x__7__ comp.11 reset VGND VNB VPB VPWR __21__ sky130_fd_sc_hd__lpflow_isobufsrc_1
x__8__ comp.12 reset VGND VNB VPB VPWR __22__ sky130_fd_sc_hd__lpflow_isobufsrc_1
x__9__ comp.13 reset VGND VNB VPB VPWR __23__ sky130_fd_sc_hd__lpflow_isobufsrc_1
x__10__ clk __19__ VGND VNB VPB VPWR comp_prev.4 sky130_fd_sc_hd__dfxtp_1
x__11__ clk __20__ VGND VNB VPB VPWR comp_prev.0 sky130_fd_sc_hd__dfxtp_1
x__12__ clk __21__ VGND VNB VPB VPWR comp_prev.1 sky130_fd_sc_hd__dfxtp_1
x__13__ clk __22__ VGND VNB VPB VPWR comp_prev.2 sky130_fd_sc_hd__dfxtp_1
x__14__ clk __23__ VGND VNB VPB VPWR comp_prev.3 sky130_fd_sc_hd__dfxtp_1

* Tieoffs

.ends

