* edge_detector.spice
* File autogenerated by json2spice.py

* Subcircuit Definition
.subckt edge_detector5 clk reset comp.20 comp.21 comp.22 comp.23 comp.24 enable.20 enable.21 enable.22 enable.23 enable.24 VGND VNB VPB VPWR

* Standard Cells
x__0__ comp.20 comp_prev.0 VGND VNB VPB VPWR enable.20 sky130_fd_sc_hd__lpflow_isobufsrc_1
x__1__ comp.21 comp_prev.1 VGND VNB VPB VPWR enable.21 sky130_fd_sc_hd__lpflow_isobufsrc_1
x__2__ comp.22 comp_prev.2 VGND VNB VPB VPWR enable.22 sky130_fd_sc_hd__lpflow_isobufsrc_1
x__3__ comp.23 comp_prev.3 VGND VNB VPB VPWR enable.23 sky130_fd_sc_hd__lpflow_isobufsrc_1
x__4__ comp.24 comp_prev.4 VGND VNB VPB VPWR enable.24 sky130_fd_sc_hd__lpflow_isobufsrc_1
x__5__ comp.24 reset VGND VNB VPB VPWR __19__ sky130_fd_sc_hd__lpflow_isobufsrc_1
x__6__ comp.20 reset VGND VNB VPB VPWR __20__ sky130_fd_sc_hd__lpflow_isobufsrc_1
x__7__ comp.21 reset VGND VNB VPB VPWR __21__ sky130_fd_sc_hd__lpflow_isobufsrc_1
x__8__ comp.22 reset VGND VNB VPB VPWR __22__ sky130_fd_sc_hd__lpflow_isobufsrc_1
x__9__ comp.23 reset VGND VNB VPB VPWR __23__ sky130_fd_sc_hd__lpflow_isobufsrc_1
x__10__ clk __19__ VGND VNB VPB VPWR comp_prev.4 sky130_fd_sc_hd__dfxtp_1
x__11__ clk __20__ VGND VNB VPB VPWR comp_prev.0 sky130_fd_sc_hd__dfxtp_1
x__12__ clk __21__ VGND VNB VPB VPWR comp_prev.1 sky130_fd_sc_hd__dfxtp_1
x__13__ clk __22__ VGND VNB VPB VPWR comp_prev.2 sky130_fd_sc_hd__dfxtp_1
x__14__ clk __23__ VGND VNB VPB VPWR comp_prev.3 sky130_fd_sc_hd__dfxtp_1

* Tieoffs

.ends

