* edge_detector.spice
* File autogenerated by json2spice.py

* Subcircuit Definition
.subckt edge_detector4 clk reset comp.15 comp.16 comp.17 comp.18 comp.19 enable.15 enable.16 enable.17 enable.18 enable.19 VGND VNB VPB VPWR

* Standard Cells
x__0__ comp.15 comp_prev.0 VGND VNB VPB VPWR enable.15 sky130_fd_sc_hd__lpflow_isobufsrc_1
x__1__ comp.16 comp_prev.1 VGND VNB VPB VPWR enable.16 sky130_fd_sc_hd__lpflow_isobufsrc_1
x__2__ comp.17 comp_prev.2 VGND VNB VPB VPWR enable.17 sky130_fd_sc_hd__lpflow_isobufsrc_1
x__3__ comp.18 comp_prev.3 VGND VNB VPB VPWR enable.18 sky130_fd_sc_hd__lpflow_isobufsrc_1
x__4__ comp.19 comp_prev.4 VGND VNB VPB VPWR enable.19 sky130_fd_sc_hd__lpflow_isobufsrc_1
x__5__ comp.19 reset VGND VNB VPB VPWR __19__ sky130_fd_sc_hd__lpflow_isobufsrc_1
x__6__ comp.15 reset VGND VNB VPB VPWR __20__ sky130_fd_sc_hd__lpflow_isobufsrc_1
x__7__ comp.16 reset VGND VNB VPB VPWR __21__ sky130_fd_sc_hd__lpflow_isobufsrc_1
x__8__ comp.17 reset VGND VNB VPB VPWR __22__ sky130_fd_sc_hd__lpflow_isobufsrc_1
x__9__ comp.18 reset VGND VNB VPB VPWR __23__ sky130_fd_sc_hd__lpflow_isobufsrc_1
x__10__ clk __19__ VGND VNB VPB VPWR comp_prev.4 sky130_fd_sc_hd__dfxtp_1
x__11__ clk __20__ VGND VNB VPB VPWR comp_prev.0 sky130_fd_sc_hd__dfxtp_1
x__12__ clk __21__ VGND VNB VPB VPWR comp_prev.1 sky130_fd_sc_hd__dfxtp_1
x__13__ clk __22__ VGND VNB VPB VPWR comp_prev.2 sky130_fd_sc_hd__dfxtp_1
x__14__ clk __23__ VGND VNB VPB VPWR comp_prev.3 sky130_fd_sc_hd__dfxtp_1

* Tieoffs

.ends

