* edge_detector.spice
* File autogenerated by json2spice.py

* Subcircuit Definition
.subckt edge_detector7 clk reset comp.30 comp.31 comp.32 comp.33 comp.34 enable.30 enable.31 enable.32 enable.33 enable.34 VGND VNB VPB VPWR

* Standard Cells
x__0__ comp.30 comp_prev.0 VGND VNB VPB VPWR enable.30 sky130_fd_sc_hd__lpflow_isobufsrc_1
x__1__ comp.31 comp_prev.1 VGND VNB VPB VPWR enable.31 sky130_fd_sc_hd__lpflow_isobufsrc_1
x__2__ comp.32 comp_prev.2 VGND VNB VPB VPWR enable.32 sky130_fd_sc_hd__lpflow_isobufsrc_1
x__3__ comp.33 comp_prev.3 VGND VNB VPB VPWR enable.33 sky130_fd_sc_hd__lpflow_isobufsrc_1
x__4__ comp.34 comp_prev.4 VGND VNB VPB VPWR enable.34 sky130_fd_sc_hd__lpflow_isobufsrc_1
x__5__ comp.34 reset VGND VNB VPB VPWR __19__ sky130_fd_sc_hd__lpflow_isobufsrc_1
x__6__ comp.30 reset VGND VNB VPB VPWR __20__ sky130_fd_sc_hd__lpflow_isobufsrc_1
x__7__ comp.31 reset VGND VNB VPB VPWR __21__ sky130_fd_sc_hd__lpflow_isobufsrc_1
x__8__ comp.32 reset VGND VNB VPB VPWR __22__ sky130_fd_sc_hd__lpflow_isobufsrc_1
x__9__ comp.33 reset VGND VNB VPB VPWR __23__ sky130_fd_sc_hd__lpflow_isobufsrc_1
x__10__ clk __19__ VGND VNB VPB VPWR comp_prev.4 sky130_fd_sc_hd__dfxtp_1
x__11__ clk __20__ VGND VNB VPB VPWR comp_prev.0 sky130_fd_sc_hd__dfxtp_1
x__12__ clk __21__ VGND VNB VPB VPWR comp_prev.1 sky130_fd_sc_hd__dfxtp_1
x__13__ clk __22__ VGND VNB VPB VPWR comp_prev.2 sky130_fd_sc_hd__dfxtp_1
x__14__ clk __23__ VGND VNB VPB VPWR comp_prev.3 sky130_fd_sc_hd__dfxtp_1

* Tieoffs

.ends

