* edge_detector.spice
* File autogenerated by json2spice.py

* Subcircuit Definition
.subckt edge_detector10 clk reset comp.45 comp.46 comp.47 comp.48 comp.49 enable.45 enable.46 enable.47 enable.48 enable.49 VGND VNB VPB VPWR

* Standard Cells
x__0__ comp.45 comp_prev.0 VGND VNB VPB VPWR enable.45 sky130_fd_sc_hd__lpflow_isobufsrc_1
x__1__ comp.46 comp_prev.1 VGND VNB VPB VPWR enable.46 sky130_fd_sc_hd__lpflow_isobufsrc_1
x__2__ comp.47 comp_prev.2 VGND VNB VPB VPWR enable.47 sky130_fd_sc_hd__lpflow_isobufsrc_1
x__3__ comp.48 comp_prev.3 VGND VNB VPB VPWR enable.48 sky130_fd_sc_hd__lpflow_isobufsrc_1
x__4__ comp.49 comp_prev.4 VGND VNB VPB VPWR enable.49 sky130_fd_sc_hd__lpflow_isobufsrc_1
x__5__ comp.49 reset VGND VNB VPB VPWR __19__ sky130_fd_sc_hd__lpflow_isobufsrc_1
x__6__ comp.45 reset VGND VNB VPB VPWR __20__ sky130_fd_sc_hd__lpflow_isobufsrc_1
x__7__ comp.46 reset VGND VNB VPB VPWR __21__ sky130_fd_sc_hd__lpflow_isobufsrc_1
x__8__ comp.47 reset VGND VNB VPB VPWR __22__ sky130_fd_sc_hd__lpflow_isobufsrc_1
x__9__ comp.48 reset VGND VNB VPB VPWR __23__ sky130_fd_sc_hd__lpflow_isobufsrc_1
x__10__ clk __19__ VGND VNB VPB VPWR comp_prev.4 sky130_fd_sc_hd__dfxtp_1
x__11__ clk __20__ VGND VNB VPB VPWR comp_prev.0 sky130_fd_sc_hd__dfxtp_1
x__12__ clk __21__ VGND VNB VPB VPWR comp_prev.1 sky130_fd_sc_hd__dfxtp_1
x__13__ clk __22__ VGND VNB VPB VPWR comp_prev.2 sky130_fd_sc_hd__dfxtp_1
x__14__ clk __23__ VGND VNB VPB VPWR comp_prev.3 sky130_fd_sc_hd__dfxtp_1

* Tieoffs

.ends

