* register_array.spice
* File autogenerated by json2spice.py


* Subcircuit Definition
.subckt register_array7 clk reset enable.30 enable.31 enable.32 enable.33 enable.34 count.0 count.1 count.2 count.3 count.4 count.5 count.6 count.7 stored_values.240 stored_values.241 stored_values.242 stored_values.243 stored_values.244 stored_values.245 stored_values.246 stored_values.247 stored_values.248 stored_values.249 stored_values.250 stored_values.251 stored_values.252 stored_values.253 stored_values.254 stored_values.255 stored_values.256 stored_values.257 stored_values.258 stored_values.259 stored_values.260 stored_values.261 stored_values.262 stored_values.263 stored_values.264 stored_values.265 stored_values.266 stored_values.267 stored_values.268 stored_values.269 stored_values.270 stored_values.271 stored_values.272 stored_values.273 stored_values.274 stored_values.275 stored_values.276 stored_values.277 stored_values.278 stored_values.279 VGND VNB VPB VPWR

* Standard Cells
x__0__ stored_values.272 count.0 enable.34 VGND VNB VPB VPWR __57__ sky130_fd_sc_hd__mux2i_1
x__1__ reset __57__ VGND VNB VPB VPWR __58__ sky130_fd_sc_hd__nor2_1
x__2__ stored_values.273 count.1 enable.34 VGND VNB VPB VPWR __59__ sky130_fd_sc_hd__mux2i_1
x__3__ reset __59__ VGND VNB VPB VPWR __60__ sky130_fd_sc_hd__nor2_1
x__4__ stored_values.274 count.2 enable.34 VGND VNB VPB VPWR __61__ sky130_fd_sc_hd__mux2i_1
x__5__ reset __61__ VGND VNB VPB VPWR __62__ sky130_fd_sc_hd__nor2_1
x__6__ stored_values.275 count.3 enable.34 VGND VNB VPB VPWR __63__ sky130_fd_sc_hd__mux2i_1
x__7__ reset __63__ VGND VNB VPB VPWR __64__ sky130_fd_sc_hd__nor2_1
x__8__ stored_values.276 count.4 enable.34 VGND VNB VPB VPWR __65__ sky130_fd_sc_hd__mux2i_1
x__9__ reset __65__ VGND VNB VPB VPWR __66__ sky130_fd_sc_hd__nor2_1
x__10__ stored_values.277 count.5 enable.34 VGND VNB VPB VPWR __67__ sky130_fd_sc_hd__mux2i_1
x__11__ reset __67__ VGND VNB VPB VPWR __68__ sky130_fd_sc_hd__nor2_1
x__12__ stored_values.278 count.6 enable.34 VGND VNB VPB VPWR __69__ sky130_fd_sc_hd__mux2i_1
x__13__ reset __69__ VGND VNB VPB VPWR __70__ sky130_fd_sc_hd__nor2_1
x__14__ stored_values.279 count.7 enable.34 VGND VNB VPB VPWR __71__ sky130_fd_sc_hd__mux2i_1
x__15__ reset __71__ VGND VNB VPB VPWR __72__ sky130_fd_sc_hd__nor2_1
x__16__ stored_values.264 count.0 enable.33 VGND VNB VPB VPWR __73__ sky130_fd_sc_hd__mux2i_1
x__17__ reset __73__ VGND VNB VPB VPWR __74__ sky130_fd_sc_hd__nor2_1
x__18__ stored_values.265 count.1 enable.33 VGND VNB VPB VPWR __75__ sky130_fd_sc_hd__mux2i_1
x__19__ reset __75__ VGND VNB VPB VPWR __76__ sky130_fd_sc_hd__nor2_1
x__20__ stored_values.266 count.2 enable.33 VGND VNB VPB VPWR __77__ sky130_fd_sc_hd__mux2i_1
x__21__ reset __77__ VGND VNB VPB VPWR __78__ sky130_fd_sc_hd__nor2_1
x__22__ stored_values.267 count.3 enable.33 VGND VNB VPB VPWR __79__ sky130_fd_sc_hd__mux2i_1
x__23__ reset __79__ VGND VNB VPB VPWR __80__ sky130_fd_sc_hd__nor2_1
x__24__ stored_values.268 count.4 enable.33 VGND VNB VPB VPWR __81__ sky130_fd_sc_hd__mux2i_1
x__25__ reset __81__ VGND VNB VPB VPWR __82__ sky130_fd_sc_hd__nor2_1
x__26__ stored_values.269 count.5 enable.33 VGND VNB VPB VPWR __83__ sky130_fd_sc_hd__mux2i_1
x__27__ reset __83__ VGND VNB VPB VPWR __84__ sky130_fd_sc_hd__nor2_1
x__28__ stored_values.270 count.6 enable.33 VGND VNB VPB VPWR __85__ sky130_fd_sc_hd__mux2i_1
x__29__ reset __85__ VGND VNB VPB VPWR __86__ sky130_fd_sc_hd__nor2_1
x__30__ stored_values.271 count.7 enable.33 VGND VNB VPB VPWR __87__ sky130_fd_sc_hd__mux2i_1
x__31__ reset __87__ VGND VNB VPB VPWR __88__ sky130_fd_sc_hd__nor2_1
x__32__ stored_values.256 count.0 enable.32 VGND VNB VPB VPWR __89__ sky130_fd_sc_hd__mux2i_1
x__33__ reset __89__ VGND VNB VPB VPWR __90__ sky130_fd_sc_hd__nor2_1
x__34__ stored_values.257 count.1 enable.32 VGND VNB VPB VPWR __91__ sky130_fd_sc_hd__mux2i_1
x__35__ reset __91__ VGND VNB VPB VPWR __92__ sky130_fd_sc_hd__nor2_1
x__36__ stored_values.258 count.2 enable.32 VGND VNB VPB VPWR __93__ sky130_fd_sc_hd__mux2i_1
x__37__ reset __93__ VGND VNB VPB VPWR __94__ sky130_fd_sc_hd__nor2_1
x__38__ stored_values.259 count.3 enable.32 VGND VNB VPB VPWR __95__ sky130_fd_sc_hd__mux2i_1
x__39__ reset __95__ VGND VNB VPB VPWR __96__ sky130_fd_sc_hd__nor2_1
x__40__ stored_values.260 count.4 enable.32 VGND VNB VPB VPWR __97__ sky130_fd_sc_hd__mux2i_1
x__41__ reset __97__ VGND VNB VPB VPWR __98__ sky130_fd_sc_hd__nor2_1
x__42__ stored_values.261 count.5 enable.32 VGND VNB VPB VPWR __99__ sky130_fd_sc_hd__mux2i_1
x__43__ reset __99__ VGND VNB VPB VPWR __100__ sky130_fd_sc_hd__nor2_1
x__44__ stored_values.262 count.6 enable.32 VGND VNB VPB VPWR __101__ sky130_fd_sc_hd__mux2i_1
x__45__ reset __101__ VGND VNB VPB VPWR __102__ sky130_fd_sc_hd__nor2_1
x__46__ stored_values.263 count.7 enable.32 VGND VNB VPB VPWR __103__ sky130_fd_sc_hd__mux2i_1
x__47__ reset __103__ VGND VNB VPB VPWR __104__ sky130_fd_sc_hd__nor2_1
x__48__ stored_values.248 count.0 enable.31 VGND VNB VPB VPWR __105__ sky130_fd_sc_hd__mux2i_1
x__49__ reset __105__ VGND VNB VPB VPWR __106__ sky130_fd_sc_hd__nor2_1
x__50__ stored_values.249 count.1 enable.31 VGND VNB VPB VPWR __107__ sky130_fd_sc_hd__mux2i_1
x__51__ reset __107__ VGND VNB VPB VPWR __108__ sky130_fd_sc_hd__nor2_1
x__52__ stored_values.250 count.2 enable.31 VGND VNB VPB VPWR __109__ sky130_fd_sc_hd__mux2i_1
x__53__ reset __109__ VGND VNB VPB VPWR __110__ sky130_fd_sc_hd__nor2_1
x__54__ stored_values.251 count.3 enable.31 VGND VNB VPB VPWR __111__ sky130_fd_sc_hd__mux2i_1
x__55__ reset __111__ VGND VNB VPB VPWR __112__ sky130_fd_sc_hd__nor2_1
x__56__ stored_values.252 count.4 enable.31 VGND VNB VPB VPWR __113__ sky130_fd_sc_hd__mux2i_1
x__57__ reset __113__ VGND VNB VPB VPWR __114__ sky130_fd_sc_hd__nor2_1
x__58__ stored_values.253 count.5 enable.31 VGND VNB VPB VPWR __115__ sky130_fd_sc_hd__mux2i_1
x__59__ reset __115__ VGND VNB VPB VPWR __116__ sky130_fd_sc_hd__nor2_1
x__60__ stored_values.254 count.6 enable.31 VGND VNB VPB VPWR __117__ sky130_fd_sc_hd__mux2i_1
x__61__ reset __117__ VGND VNB VPB VPWR __118__ sky130_fd_sc_hd__nor2_1
x__62__ stored_values.255 count.7 enable.31 VGND VNB VPB VPWR __119__ sky130_fd_sc_hd__mux2i_1
x__63__ reset __119__ VGND VNB VPB VPWR __120__ sky130_fd_sc_hd__nor2_1
x__64__ stored_values.240 count.0 enable.30 VGND VNB VPB VPWR __121__ sky130_fd_sc_hd__mux2i_1
x__65__ reset __121__ VGND VNB VPB VPWR __122__ sky130_fd_sc_hd__nor2_1
x__66__ stored_values.241 count.1 enable.30 VGND VNB VPB VPWR __123__ sky130_fd_sc_hd__mux2i_1
x__67__ reset __123__ VGND VNB VPB VPWR __124__ sky130_fd_sc_hd__nor2_1
x__68__ stored_values.242 count.2 enable.30 VGND VNB VPB VPWR __125__ sky130_fd_sc_hd__mux2i_1
x__69__ reset __125__ VGND VNB VPB VPWR __126__ sky130_fd_sc_hd__nor2_1
x__70__ stored_values.243 count.3 enable.30 VGND VNB VPB VPWR __127__ sky130_fd_sc_hd__mux2i_1
x__71__ reset __127__ VGND VNB VPB VPWR __128__ sky130_fd_sc_hd__nor2_1
x__72__ stored_values.244 count.4 enable.30 VGND VNB VPB VPWR __129__ sky130_fd_sc_hd__mux2i_1
x__73__ reset __129__ VGND VNB VPB VPWR __130__ sky130_fd_sc_hd__nor2_1
x__74__ stored_values.245 count.5 enable.30 VGND VNB VPB VPWR __131__ sky130_fd_sc_hd__mux2i_1
x__75__ reset __131__ VGND VNB VPB VPWR __132__ sky130_fd_sc_hd__nor2_1
x__76__ stored_values.246 count.6 enable.30 VGND VNB VPB VPWR __133__ sky130_fd_sc_hd__mux2i_1
x__77__ reset __133__ VGND VNB VPB VPWR __134__ sky130_fd_sc_hd__nor2_1
x__78__ stored_values.247 count.7 enable.30 VGND VNB VPB VPWR __135__ sky130_fd_sc_hd__mux2i_1
x__79__ reset __135__ VGND VNB VPB VPWR __136__ sky130_fd_sc_hd__nor2_1
x__80__ clk __58__ VGND VNB VPB VPWR stored_values.272 sky130_fd_sc_hd__dfxtp_1
x__81__ clk __60__ VGND VNB VPB VPWR stored_values.273 sky130_fd_sc_hd__dfxtp_1
x__82__ clk __62__ VGND VNB VPB VPWR stored_values.274 sky130_fd_sc_hd__dfxtp_1
x__83__ clk __64__ VGND VNB VPB VPWR stored_values.275 sky130_fd_sc_hd__dfxtp_1
x__84__ clk __66__ VGND VNB VPB VPWR stored_values.276 sky130_fd_sc_hd__dfxtp_1
x__85__ clk __68__ VGND VNB VPB VPWR stored_values.277 sky130_fd_sc_hd__dfxtp_1
x__86__ clk __70__ VGND VNB VPB VPWR stored_values.278 sky130_fd_sc_hd__dfxtp_1
x__87__ clk __72__ VGND VNB VPB VPWR stored_values.279 sky130_fd_sc_hd__dfxtp_1
x__88__ clk __74__ VGND VNB VPB VPWR stored_values.264 sky130_fd_sc_hd__dfxtp_1
x__89__ clk __76__ VGND VNB VPB VPWR stored_values.265 sky130_fd_sc_hd__dfxtp_1
x__90__ clk __78__ VGND VNB VPB VPWR stored_values.266 sky130_fd_sc_hd__dfxtp_1
x__91__ clk __80__ VGND VNB VPB VPWR stored_values.267 sky130_fd_sc_hd__dfxtp_1
x__92__ clk __82__ VGND VNB VPB VPWR stored_values.268 sky130_fd_sc_hd__dfxtp_1
x__93__ clk __84__ VGND VNB VPB VPWR stored_values.269 sky130_fd_sc_hd__dfxtp_1
x__94__ clk __86__ VGND VNB VPB VPWR stored_values.270 sky130_fd_sc_hd__dfxtp_1
x__95__ clk __88__ VGND VNB VPB VPWR stored_values.271 sky130_fd_sc_hd__dfxtp_1
x__96__ clk __90__ VGND VNB VPB VPWR stored_values.256 sky130_fd_sc_hd__dfxtp_1
x__97__ clk __92__ VGND VNB VPB VPWR stored_values.257 sky130_fd_sc_hd__dfxtp_1
x__98__ clk __94__ VGND VNB VPB VPWR stored_values.258 sky130_fd_sc_hd__dfxtp_1
x__99__ clk __96__ VGND VNB VPB VPWR stored_values.259 sky130_fd_sc_hd__dfxtp_1
x__100__ clk __98__ VGND VNB VPB VPWR stored_values.260 sky130_fd_sc_hd__dfxtp_1
x__101__ clk __100__ VGND VNB VPB VPWR stored_values.261 sky130_fd_sc_hd__dfxtp_1
x__102__ clk __102__ VGND VNB VPB VPWR stored_values.262 sky130_fd_sc_hd__dfxtp_1
x__103__ clk __104__ VGND VNB VPB VPWR stored_values.263 sky130_fd_sc_hd__dfxtp_1
x__104__ clk __106__ VGND VNB VPB VPWR stored_values.248 sky130_fd_sc_hd__dfxtp_1
x__105__ clk __108__ VGND VNB VPB VPWR stored_values.249 sky130_fd_sc_hd__dfxtp_1
x__106__ clk __110__ VGND VNB VPB VPWR stored_values.250 sky130_fd_sc_hd__dfxtp_1
x__107__ clk __112__ VGND VNB VPB VPWR stored_values.251 sky130_fd_sc_hd__dfxtp_1
x__108__ clk __114__ VGND VNB VPB VPWR stored_values.252 sky130_fd_sc_hd__dfxtp_1
x__109__ clk __116__ VGND VNB VPB VPWR stored_values.253 sky130_fd_sc_hd__dfxtp_1
x__110__ clk __118__ VGND VNB VPB VPWR stored_values.254 sky130_fd_sc_hd__dfxtp_1
x__111__ clk __120__ VGND VNB VPB VPWR stored_values.255 sky130_fd_sc_hd__dfxtp_1
x__112__ clk __122__ VGND VNB VPB VPWR stored_values.240 sky130_fd_sc_hd__dfxtp_1
x__113__ clk __124__ VGND VNB VPB VPWR stored_values.241 sky130_fd_sc_hd__dfxtp_1
x__114__ clk __126__ VGND VNB VPB VPWR stored_values.242 sky130_fd_sc_hd__dfxtp_1
x__115__ clk __128__ VGND VNB VPB VPWR stored_values.243 sky130_fd_sc_hd__dfxtp_1
x__116__ clk __130__ VGND VNB VPB VPWR stored_values.244 sky130_fd_sc_hd__dfxtp_1
x__117__ clk __132__ VGND VNB VPB VPWR stored_values.245 sky130_fd_sc_hd__dfxtp_1
x__118__ clk __134__ VGND VNB VPB VPWR stored_values.246 sky130_fd_sc_hd__dfxtp_1
x__119__ clk __136__ VGND VNB VPB VPWR stored_values.247 sky130_fd_sc_hd__dfxtp_1

* Tieoffs

.ends

