* single_row_adc.spice
* File autogenerated by json2spice.py

* Subcircuit Definition
.subckt single_row_adc clk reset comp.0 comp.1 comp.2 comp.3 comp.4 comp.5 comp.6 comp.7 comp.8 comp.9 comp.10 comp.11 comp.12 comp.13 comp.14 comp.15 comp.16 comp.17 comp.18 comp.19 comp.20 comp.21 comp.22 comp.23 comp.24 comp.25 comp.26 comp.27 comp.28 comp.29 comp.30 comp.31 comp.32 comp.33 comp.34 comp.35 comp.36 comp.37 comp.38 comp.39 comp.40 comp.41 comp.42 comp.43 comp.44 comp.45 comp.46 comp.47 comp.48 comp.49 stored_values.0 stored_values.1 stored_values.2 stored_values.3 stored_values.4 stored_values.5 stored_values.6 stored_values.7 stored_values.8 stored_values.9 stored_values.10 stored_values.11 stored_values.12 stored_values.13 stored_values.14 stored_values.15 stored_values.16 stored_values.17 stored_values.18 stored_values.19 stored_values.20 stored_values.21 stored_values.22 stored_values.23 stored_values.24 stored_values.25 stored_values.26 stored_values.27 stored_values.28 stored_values.29 stored_values.30 stored_values.31 stored_values.32 stored_values.33 stored_values.34 stored_values.35 stored_values.36 stored_values.37 stored_values.38 stored_values.39 stored_values.40 stored_values.41 stored_values.42 stored_values.43 stored_values.44 stored_values.45 stored_values.46 stored_values.47 stored_values.48 stored_values.49 stored_values.50 stored_values.51 stored_values.52 stored_values.53 stored_values.54 stored_values.55 stored_values.56 stored_values.57 stored_values.58 stored_values.59 stored_values.60 stored_values.61 stored_values.62 stored_values.63 stored_values.64 stored_values.65 stored_values.66 stored_values.67 stored_values.68 stored_values.69 stored_values.70 stored_values.71 stored_values.72 stored_values.73 stored_values.74 stored_values.75 stored_values.76 stored_values.77 stored_values.78 stored_values.79 stored_values.80 stored_values.81 stored_values.82 stored_values.83 stored_values.84 stored_values.85 stored_values.86 stored_values.87 stored_values.88 stored_values.89 stored_values.90 stored_values.91 stored_values.92 stored_values.93 stored_values.94 stored_values.95 stored_values.96 stored_values.97 stored_values.98 stored_values.99 stored_values.100 stored_values.101 stored_values.102 stored_values.103 stored_values.104 stored_values.105 stored_values.106 stored_values.107 stored_values.108 stored_values.109 stored_values.110 stored_values.111 stored_values.112 stored_values.113 stored_values.114 stored_values.115 stored_values.116 stored_values.117 stored_values.118 stored_values.119 stored_values.120 stored_values.121 stored_values.122 stored_values.123 stored_values.124 stored_values.125 stored_values.126 stored_values.127 stored_values.128 stored_values.129 stored_values.130 stored_values.131 stored_values.132 stored_values.133 stored_values.134 stored_values.135 stored_values.136 stored_values.137 stored_values.138 stored_values.139 stored_values.140 stored_values.141 stored_values.142 stored_values.143 stored_values.144 stored_values.145 stored_values.146 stored_values.147 stored_values.148 stored_values.149 stored_values.150 stored_values.151 stored_values.152 stored_values.153 stored_values.154 stored_values.155 stored_values.156 stored_values.157 stored_values.158 stored_values.159 stored_values.160 stored_values.161 stored_values.162 stored_values.163 stored_values.164 stored_values.165 stored_values.166 stored_values.167 stored_values.168 stored_values.169 stored_values.170 stored_values.171 stored_values.172 stored_values.173 stored_values.174 stored_values.175 stored_values.176 stored_values.177 stored_values.178 stored_values.179 stored_values.180 stored_values.181 stored_values.182 stored_values.183 stored_values.184 stored_values.185 stored_values.186 stored_values.187 stored_values.188 stored_values.189 stored_values.190 stored_values.191 stored_values.192 stored_values.193 stored_values.194 stored_values.195 stored_values.196 stored_values.197 stored_values.198 stored_values.199 stored_values.200 stored_values.201 stored_values.202 stored_values.203 stored_values.204 stored_values.205 stored_values.206 stored_values.207 stored_values.208 stored_values.209 stored_values.210 stored_values.211 stored_values.212 stored_values.213 stored_values.214 stored_values.215 stored_values.216 stored_values.217 stored_values.218 stored_values.219 stored_values.220 stored_values.221 stored_values.222 stored_values.223 stored_values.224 stored_values.225 stored_values.226 stored_values.227 stored_values.228 stored_values.229 stored_values.230 stored_values.231 stored_values.232 stored_values.233 stored_values.234 stored_values.235 stored_values.236 stored_values.237 stored_values.238 stored_values.239 stored_values.240 stored_values.241 stored_values.242 stored_values.243 stored_values.244 stored_values.245 stored_values.246 stored_values.247 stored_values.248 stored_values.249 stored_values.250 stored_values.251 stored_values.252 stored_values.253 stored_values.254 stored_values.255 stored_values.256 stored_values.257 stored_values.258 stored_values.259 stored_values.260 stored_values.261 stored_values.262 stored_values.263 stored_values.264 stored_values.265 stored_values.266 stored_values.267 stored_values.268 stored_values.269 stored_values.270 stored_values.271 stored_values.272 stored_values.273 stored_values.274 stored_values.275 stored_values.276 stored_values.277 stored_values.278 stored_values.279 stored_values.280 stored_values.281 stored_values.282 stored_values.283 stored_values.284 stored_values.285 stored_values.286 stored_values.287 stored_values.288 stored_values.289 stored_values.290 stored_values.291 stored_values.292 stored_values.293 stored_values.294 stored_values.295 stored_values.296 stored_values.297 stored_values.298 stored_values.299 stored_values.300 stored_values.301 stored_values.302 stored_values.303 stored_values.304 stored_values.305 stored_values.306 stored_values.307 stored_values.308 stored_values.309 stored_values.310 stored_values.311 stored_values.312 stored_values.313 stored_values.314 stored_values.315 stored_values.316 stored_values.317 stored_values.318 stored_values.319 stored_values.320 stored_values.321 stored_values.322 stored_values.323 stored_values.324 stored_values.325 stored_values.326 stored_values.327 stored_values.328 stored_values.329 stored_values.330 stored_values.331 stored_values.332 stored_values.333 stored_values.334 stored_values.335 stored_values.336 stored_values.337 stored_values.338 stored_values.339 stored_values.340 stored_values.341 stored_values.342 stored_values.343 stored_values.344 stored_values.345 stored_values.346 stored_values.347 stored_values.348 stored_values.349 stored_values.350 stored_values.351 stored_values.352 stored_values.353 stored_values.354 stored_values.355 stored_values.356 stored_values.357 stored_values.358 stored_values.359 stored_values.360 stored_values.361 stored_values.362 stored_values.363 stored_values.364 stored_values.365 stored_values.366 stored_values.367 stored_values.368 stored_values.369 stored_values.370 stored_values.371 stored_values.372 stored_values.373 stored_values.374 stored_values.375 stored_values.376 stored_values.377 stored_values.378 stored_values.379 stored_values.380 stored_values.381 stored_values.382 stored_values.383 stored_values.384 stored_values.385 stored_values.386 stored_values.387 stored_values.388 stored_values.389 stored_values.390 stored_values.391 stored_values.392 stored_values.393 stored_values.394 stored_values.395 stored_values.396 stored_values.397 stored_values.398 stored_values.399 VGND VNB VPB VPWR

* Standard Cells
x__0__ counter.0 VGND VNB VPB VPWR __455__ sky130_fd_sc_hd__clkinv_1
x__1__ reset VGND VNB VPB VPWR __456__ sky130_fd_sc_hd__clkinv_1
x__2__ comp.0 comp_prev.0 VGND VNB VPB VPWR __458__ sky130_fd_sc_hd__lpflow_isobufsrc_1
x__3__ stored_values.7 counter.7 __458__ VGND VNB VPB VPWR __460__ sky130_fd_sc_hd__mux2_1
x__4__ stored_values.6 counter.6 __458__ VGND VNB VPB VPWR __462__ sky130_fd_sc_hd__mux2_1
x__5__ stored_values.5 counter.5 __458__ VGND VNB VPB VPWR __464__ sky130_fd_sc_hd__mux2_1
x__6__ stored_values.4 counter.4 __458__ VGND VNB VPB VPWR __466__ sky130_fd_sc_hd__mux2_1
x__7__ stored_values.3 counter.3 __458__ VGND VNB VPB VPWR __468__ sky130_fd_sc_hd__mux2_1
x__8__ stored_values.2 counter.2 __458__ VGND VNB VPB VPWR __470__ sky130_fd_sc_hd__mux2_1
x__9__ stored_values.1 counter.1 __458__ VGND VNB VPB VPWR __472__ sky130_fd_sc_hd__mux2_1
x__10__ stored_values.0 __458__ VGND VNB VPB VPWR __473__ sky130_fd_sc_hd__nor2_1
x__11__ __455__ __458__ __473__ VGND VNB VPB VPWR __474__ sky130_fd_sc_hd__a21oi_1
x__12__ comp_prev.1 comp.1 VGND VNB VPB VPWR __476__ sky130_fd_sc_hd__nand2b_1
x__13__ counter.7 stored_values.15 __476__ VGND VNB VPB VPWR __477__ sky130_fd_sc_hd__mux2_1
x__14__ counter.6 stored_values.14 __476__ VGND VNB VPB VPWR __478__ sky130_fd_sc_hd__mux2_1
x__15__ counter.5 stored_values.13 __476__ VGND VNB VPB VPWR __479__ sky130_fd_sc_hd__mux2_1
x__16__ counter.4 stored_values.12 __476__ VGND VNB VPB VPWR __480__ sky130_fd_sc_hd__mux2_1
x__17__ counter.3 stored_values.11 __476__ VGND VNB VPB VPWR __481__ sky130_fd_sc_hd__mux2_1
x__18__ counter.2 stored_values.10 __476__ VGND VNB VPB VPWR __482__ sky130_fd_sc_hd__mux2_1
x__19__ counter.1 stored_values.9 __476__ VGND VNB VPB VPWR __483__ sky130_fd_sc_hd__mux2_1
x__20__ stored_values.8 __476__ VGND VNB VPB VPWR __484__ sky130_fd_sc_hd__nand2_1
x__21__ __455__ __476__ __484__ VGND VNB VPB VPWR __485__ sky130_fd_sc_hd__o21ai_0
x__22__ comp_prev.2 comp.2 VGND VNB VPB VPWR __487__ sky130_fd_sc_hd__nand2b_1
x__23__ counter.7 stored_values.23 __487__ VGND VNB VPB VPWR __488__ sky130_fd_sc_hd__mux2_1
x__24__ counter.6 stored_values.22 __487__ VGND VNB VPB VPWR __489__ sky130_fd_sc_hd__mux2_1
x__25__ counter.5 stored_values.21 __487__ VGND VNB VPB VPWR __490__ sky130_fd_sc_hd__mux2_1
x__26__ counter.4 stored_values.20 __487__ VGND VNB VPB VPWR __491__ sky130_fd_sc_hd__mux2_1
x__27__ counter.3 stored_values.19 __487__ VGND VNB VPB VPWR __492__ sky130_fd_sc_hd__mux2_1
x__28__ counter.2 stored_values.18 __487__ VGND VNB VPB VPWR __493__ sky130_fd_sc_hd__mux2_1
x__29__ counter.1 stored_values.17 __487__ VGND VNB VPB VPWR __494__ sky130_fd_sc_hd__mux2_1
x__30__ stored_values.16 __487__ VGND VNB VPB VPWR __495__ sky130_fd_sc_hd__nand2_1
x__31__ __455__ __487__ __495__ VGND VNB VPB VPWR __496__ sky130_fd_sc_hd__o21ai_0
x__32__ comp_prev.3 comp.3 VGND VNB VPB VPWR __498__ sky130_fd_sc_hd__nand2b_1
x__33__ counter.7 stored_values.31 __498__ VGND VNB VPB VPWR __499__ sky130_fd_sc_hd__mux2_1
x__34__ counter.6 stored_values.30 __498__ VGND VNB VPB VPWR __500__ sky130_fd_sc_hd__mux2_1
x__35__ counter.5 stored_values.29 __498__ VGND VNB VPB VPWR __501__ sky130_fd_sc_hd__mux2_1
x__36__ counter.4 stored_values.28 __498__ VGND VNB VPB VPWR __502__ sky130_fd_sc_hd__mux2_1
x__37__ counter.3 stored_values.27 __498__ VGND VNB VPB VPWR __503__ sky130_fd_sc_hd__mux2_1
x__38__ counter.2 stored_values.26 __498__ VGND VNB VPB VPWR __504__ sky130_fd_sc_hd__mux2_1
x__39__ counter.1 stored_values.25 __498__ VGND VNB VPB VPWR __505__ sky130_fd_sc_hd__mux2_1
x__40__ stored_values.24 __498__ VGND VNB VPB VPWR __506__ sky130_fd_sc_hd__nand2_1
x__41__ __455__ __498__ __506__ VGND VNB VPB VPWR __507__ sky130_fd_sc_hd__o21ai_0
x__42__ comp_prev.4 comp.4 VGND VNB VPB VPWR __509__ sky130_fd_sc_hd__nand2b_1
x__43__ counter.7 stored_values.39 __509__ VGND VNB VPB VPWR __510__ sky130_fd_sc_hd__mux2_1
x__44__ counter.6 stored_values.38 __509__ VGND VNB VPB VPWR __511__ sky130_fd_sc_hd__mux2_1
x__45__ counter.5 stored_values.37 __509__ VGND VNB VPB VPWR __512__ sky130_fd_sc_hd__mux2_1
x__46__ counter.4 stored_values.36 __509__ VGND VNB VPB VPWR __513__ sky130_fd_sc_hd__mux2_1
x__47__ counter.3 stored_values.35 __509__ VGND VNB VPB VPWR __514__ sky130_fd_sc_hd__mux2_1
x__48__ counter.2 stored_values.34 __509__ VGND VNB VPB VPWR __515__ sky130_fd_sc_hd__mux2_1
x__49__ counter.1 stored_values.33 __509__ VGND VNB VPB VPWR __516__ sky130_fd_sc_hd__mux2_1
x__50__ stored_values.32 __509__ VGND VNB VPB VPWR __517__ sky130_fd_sc_hd__nand2_1
x__51__ __455__ __509__ __517__ VGND VNB VPB VPWR __518__ sky130_fd_sc_hd__o21ai_0
x__52__ comp_prev.5 comp.5 VGND VNB VPB VPWR __520__ sky130_fd_sc_hd__nand2b_1
x__53__ counter.7 stored_values.47 __520__ VGND VNB VPB VPWR __521__ sky130_fd_sc_hd__mux2_1
x__54__ counter.6 stored_values.46 __520__ VGND VNB VPB VPWR __522__ sky130_fd_sc_hd__mux2_1
x__55__ counter.5 stored_values.45 __520__ VGND VNB VPB VPWR __523__ sky130_fd_sc_hd__mux2_1
x__56__ counter.4 stored_values.44 __520__ VGND VNB VPB VPWR __524__ sky130_fd_sc_hd__mux2_1
x__57__ counter.3 stored_values.43 __520__ VGND VNB VPB VPWR __525__ sky130_fd_sc_hd__mux2_1
x__58__ counter.2 stored_values.42 __520__ VGND VNB VPB VPWR __526__ sky130_fd_sc_hd__mux2_1
x__59__ counter.1 stored_values.41 __520__ VGND VNB VPB VPWR __527__ sky130_fd_sc_hd__mux2_1
x__60__ stored_values.40 __520__ VGND VNB VPB VPWR __528__ sky130_fd_sc_hd__nand2_1
x__61__ __455__ __520__ __528__ VGND VNB VPB VPWR __529__ sky130_fd_sc_hd__o21ai_0
x__62__ comp_prev.6 comp.6 VGND VNB VPB VPWR __531__ sky130_fd_sc_hd__nand2b_1
x__63__ counter.7 stored_values.55 __531__ VGND VNB VPB VPWR __532__ sky130_fd_sc_hd__mux2_1
x__64__ counter.6 stored_values.54 __531__ VGND VNB VPB VPWR __533__ sky130_fd_sc_hd__mux2_1
x__65__ counter.5 stored_values.53 __531__ VGND VNB VPB VPWR __534__ sky130_fd_sc_hd__mux2_1
x__66__ counter.4 stored_values.52 __531__ VGND VNB VPB VPWR __535__ sky130_fd_sc_hd__mux2_1
x__67__ counter.3 stored_values.51 __531__ VGND VNB VPB VPWR __536__ sky130_fd_sc_hd__mux2_1
x__68__ counter.2 stored_values.50 __531__ VGND VNB VPB VPWR __537__ sky130_fd_sc_hd__mux2_1
x__69__ counter.1 stored_values.49 __531__ VGND VNB VPB VPWR __538__ sky130_fd_sc_hd__mux2_1
x__70__ stored_values.48 __531__ VGND VNB VPB VPWR __539__ sky130_fd_sc_hd__nand2_1
x__71__ __455__ __531__ __539__ VGND VNB VPB VPWR __540__ sky130_fd_sc_hd__o21ai_0
x__72__ comp_prev.7 comp.7 VGND VNB VPB VPWR __542__ sky130_fd_sc_hd__nand2b_1
x__73__ counter.7 stored_values.63 __542__ VGND VNB VPB VPWR __543__ sky130_fd_sc_hd__mux2_1
x__74__ counter.6 stored_values.62 __542__ VGND VNB VPB VPWR __544__ sky130_fd_sc_hd__mux2_1
x__75__ counter.5 stored_values.61 __542__ VGND VNB VPB VPWR __545__ sky130_fd_sc_hd__mux2_1
x__76__ counter.4 stored_values.60 __542__ VGND VNB VPB VPWR __546__ sky130_fd_sc_hd__mux2_1
x__77__ counter.3 stored_values.59 __542__ VGND VNB VPB VPWR __547__ sky130_fd_sc_hd__mux2_1
x__78__ counter.2 stored_values.58 __542__ VGND VNB VPB VPWR __548__ sky130_fd_sc_hd__mux2_1
x__79__ counter.1 stored_values.57 __542__ VGND VNB VPB VPWR __549__ sky130_fd_sc_hd__mux2_1
x__80__ stored_values.56 __542__ VGND VNB VPB VPWR __550__ sky130_fd_sc_hd__nand2_1
x__81__ __455__ __542__ __550__ VGND VNB VPB VPWR __551__ sky130_fd_sc_hd__o21ai_0
x__82__ comp_prev.8 comp.8 VGND VNB VPB VPWR __553__ sky130_fd_sc_hd__nand2b_1
x__83__ counter.7 stored_values.71 __553__ VGND VNB VPB VPWR __554__ sky130_fd_sc_hd__mux2_1
x__84__ counter.6 stored_values.70 __553__ VGND VNB VPB VPWR __555__ sky130_fd_sc_hd__mux2_1
x__85__ counter.5 stored_values.69 __553__ VGND VNB VPB VPWR __556__ sky130_fd_sc_hd__mux2_1
x__86__ counter.4 stored_values.68 __553__ VGND VNB VPB VPWR __557__ sky130_fd_sc_hd__mux2_1
x__87__ counter.3 stored_values.67 __553__ VGND VNB VPB VPWR __558__ sky130_fd_sc_hd__mux2_1
x__88__ counter.2 stored_values.66 __553__ VGND VNB VPB VPWR __559__ sky130_fd_sc_hd__mux2_1
x__89__ counter.1 stored_values.65 __553__ VGND VNB VPB VPWR __560__ sky130_fd_sc_hd__mux2_1
x__90__ stored_values.64 __553__ VGND VNB VPB VPWR __561__ sky130_fd_sc_hd__nand2_1
x__91__ __455__ __553__ __561__ VGND VNB VPB VPWR __562__ sky130_fd_sc_hd__o21ai_0
x__92__ comp_prev.9 comp.9 VGND VNB VPB VPWR __564__ sky130_fd_sc_hd__nand2b_1
x__93__ counter.7 stored_values.79 __564__ VGND VNB VPB VPWR __565__ sky130_fd_sc_hd__mux2_1
x__94__ counter.6 stored_values.78 __564__ VGND VNB VPB VPWR __566__ sky130_fd_sc_hd__mux2_1
x__95__ counter.5 stored_values.77 __564__ VGND VNB VPB VPWR __567__ sky130_fd_sc_hd__mux2_1
x__96__ counter.4 stored_values.76 __564__ VGND VNB VPB VPWR __568__ sky130_fd_sc_hd__mux2_1
x__97__ counter.3 stored_values.75 __564__ VGND VNB VPB VPWR __569__ sky130_fd_sc_hd__mux2_1
x__98__ counter.2 stored_values.74 __564__ VGND VNB VPB VPWR __570__ sky130_fd_sc_hd__mux2_1
x__99__ counter.1 stored_values.73 __564__ VGND VNB VPB VPWR __571__ sky130_fd_sc_hd__mux2_1
x__100__ stored_values.72 __564__ VGND VNB VPB VPWR __572__ sky130_fd_sc_hd__nand2_1
x__101__ __455__ __564__ __572__ VGND VNB VPB VPWR __573__ sky130_fd_sc_hd__o21ai_0
x__102__ comp_prev.10 comp.10 VGND VNB VPB VPWR __575__ sky130_fd_sc_hd__nand2b_1
x__103__ counter.7 stored_values.87 __575__ VGND VNB VPB VPWR __576__ sky130_fd_sc_hd__mux2_1
x__104__ counter.6 stored_values.86 __575__ VGND VNB VPB VPWR __577__ sky130_fd_sc_hd__mux2_1
x__105__ counter.5 stored_values.85 __575__ VGND VNB VPB VPWR __578__ sky130_fd_sc_hd__mux2_1
x__106__ counter.4 stored_values.84 __575__ VGND VNB VPB VPWR __579__ sky130_fd_sc_hd__mux2_1
x__107__ counter.3 stored_values.83 __575__ VGND VNB VPB VPWR __580__ sky130_fd_sc_hd__mux2_1
x__108__ counter.2 stored_values.82 __575__ VGND VNB VPB VPWR __581__ sky130_fd_sc_hd__mux2_1
x__109__ counter.1 stored_values.81 __575__ VGND VNB VPB VPWR __582__ sky130_fd_sc_hd__mux2_1
x__110__ stored_values.80 __575__ VGND VNB VPB VPWR __583__ sky130_fd_sc_hd__nand2_1
x__111__ __455__ __575__ __583__ VGND VNB VPB VPWR __584__ sky130_fd_sc_hd__o21ai_0
x__112__ comp_prev.11 comp.11 VGND VNB VPB VPWR __586__ sky130_fd_sc_hd__nand2b_1
x__113__ counter.7 stored_values.95 __586__ VGND VNB VPB VPWR __587__ sky130_fd_sc_hd__mux2_1
x__114__ counter.6 stored_values.94 __586__ VGND VNB VPB VPWR __588__ sky130_fd_sc_hd__mux2_1
x__115__ counter.5 stored_values.93 __586__ VGND VNB VPB VPWR __589__ sky130_fd_sc_hd__mux2_1
x__116__ counter.4 stored_values.92 __586__ VGND VNB VPB VPWR __590__ sky130_fd_sc_hd__mux2_1
x__117__ counter.3 stored_values.91 __586__ VGND VNB VPB VPWR __591__ sky130_fd_sc_hd__mux2_1
x__118__ counter.2 stored_values.90 __586__ VGND VNB VPB VPWR __592__ sky130_fd_sc_hd__mux2_1
x__119__ counter.1 stored_values.89 __586__ VGND VNB VPB VPWR __593__ sky130_fd_sc_hd__mux2_1
x__120__ stored_values.88 __586__ VGND VNB VPB VPWR __594__ sky130_fd_sc_hd__nand2_1
x__121__ __455__ __586__ __594__ VGND VNB VPB VPWR __595__ sky130_fd_sc_hd__o21ai_0
x__122__ comp_prev.12 comp.12 VGND VNB VPB VPWR __597__ sky130_fd_sc_hd__nand2b_1
x__123__ counter.7 stored_values.103 __597__ VGND VNB VPB VPWR __598__ sky130_fd_sc_hd__mux2_1
x__124__ counter.6 stored_values.102 __597__ VGND VNB VPB VPWR __599__ sky130_fd_sc_hd__mux2_1
x__125__ counter.5 stored_values.101 __597__ VGND VNB VPB VPWR __600__ sky130_fd_sc_hd__mux2_1
x__126__ counter.4 stored_values.100 __597__ VGND VNB VPB VPWR __601__ sky130_fd_sc_hd__mux2_1
x__127__ counter.3 stored_values.99 __597__ VGND VNB VPB VPWR __602__ sky130_fd_sc_hd__mux2_1
x__128__ counter.2 stored_values.98 __597__ VGND VNB VPB VPWR __603__ sky130_fd_sc_hd__mux2_1
x__129__ counter.1 stored_values.97 __597__ VGND VNB VPB VPWR __604__ sky130_fd_sc_hd__mux2_1
x__130__ stored_values.96 __597__ VGND VNB VPB VPWR __605__ sky130_fd_sc_hd__nand2_1
x__131__ __455__ __597__ __605__ VGND VNB VPB VPWR __606__ sky130_fd_sc_hd__o21ai_0
x__132__ comp_prev.13 comp.13 VGND VNB VPB VPWR __608__ sky130_fd_sc_hd__nand2b_1
x__133__ counter.7 stored_values.111 __608__ VGND VNB VPB VPWR __609__ sky130_fd_sc_hd__mux2_1
x__134__ counter.6 stored_values.110 __608__ VGND VNB VPB VPWR __610__ sky130_fd_sc_hd__mux2_1
x__135__ counter.5 stored_values.109 __608__ VGND VNB VPB VPWR __611__ sky130_fd_sc_hd__mux2_1
x__136__ counter.4 stored_values.108 __608__ VGND VNB VPB VPWR __612__ sky130_fd_sc_hd__mux2_1
x__137__ counter.3 stored_values.107 __608__ VGND VNB VPB VPWR __613__ sky130_fd_sc_hd__mux2_1
x__138__ counter.2 stored_values.106 __608__ VGND VNB VPB VPWR __614__ sky130_fd_sc_hd__mux2_1
x__139__ counter.1 stored_values.105 __608__ VGND VNB VPB VPWR __615__ sky130_fd_sc_hd__mux2_1
x__140__ stored_values.104 __608__ VGND VNB VPB VPWR __616__ sky130_fd_sc_hd__nand2_1
x__141__ __455__ __608__ __616__ VGND VNB VPB VPWR __617__ sky130_fd_sc_hd__o21ai_0
x__142__ comp_prev.14 comp.14 VGND VNB VPB VPWR __619__ sky130_fd_sc_hd__nand2b_1
x__143__ counter.7 stored_values.119 __619__ VGND VNB VPB VPWR __620__ sky130_fd_sc_hd__mux2_1
x__144__ counter.6 stored_values.118 __619__ VGND VNB VPB VPWR __621__ sky130_fd_sc_hd__mux2_1
x__145__ counter.5 stored_values.117 __619__ VGND VNB VPB VPWR __622__ sky130_fd_sc_hd__mux2_1
x__146__ counter.4 stored_values.116 __619__ VGND VNB VPB VPWR __623__ sky130_fd_sc_hd__mux2_1
x__147__ counter.3 stored_values.115 __619__ VGND VNB VPB VPWR __624__ sky130_fd_sc_hd__mux2_1
x__148__ counter.2 stored_values.114 __619__ VGND VNB VPB VPWR __625__ sky130_fd_sc_hd__mux2_1
x__149__ counter.1 stored_values.113 __619__ VGND VNB VPB VPWR __626__ sky130_fd_sc_hd__mux2_1
x__150__ stored_values.112 __619__ VGND VNB VPB VPWR __627__ sky130_fd_sc_hd__nand2_1
x__151__ __455__ __619__ __627__ VGND VNB VPB VPWR __628__ sky130_fd_sc_hd__o21ai_0
x__152__ comp_prev.15 comp.15 VGND VNB VPB VPWR __630__ sky130_fd_sc_hd__nand2b_1
x__153__ counter.7 stored_values.127 __630__ VGND VNB VPB VPWR __631__ sky130_fd_sc_hd__mux2_1
x__154__ counter.6 stored_values.126 __630__ VGND VNB VPB VPWR __632__ sky130_fd_sc_hd__mux2_1
x__155__ counter.5 stored_values.125 __630__ VGND VNB VPB VPWR __633__ sky130_fd_sc_hd__mux2_1
x__156__ counter.4 stored_values.124 __630__ VGND VNB VPB VPWR __634__ sky130_fd_sc_hd__mux2_1
x__157__ counter.3 stored_values.123 __630__ VGND VNB VPB VPWR __635__ sky130_fd_sc_hd__mux2_1
x__158__ counter.2 stored_values.122 __630__ VGND VNB VPB VPWR __636__ sky130_fd_sc_hd__mux2_1
x__159__ counter.1 stored_values.121 __630__ VGND VNB VPB VPWR __637__ sky130_fd_sc_hd__mux2_1
x__160__ stored_values.120 __630__ VGND VNB VPB VPWR __638__ sky130_fd_sc_hd__nand2_1
x__161__ __455__ __630__ __638__ VGND VNB VPB VPWR __639__ sky130_fd_sc_hd__o21ai_0
x__162__ comp_prev.16 comp.16 VGND VNB VPB VPWR __641__ sky130_fd_sc_hd__nand2b_1
x__163__ counter.7 stored_values.135 __641__ VGND VNB VPB VPWR __642__ sky130_fd_sc_hd__mux2_1
x__164__ counter.6 stored_values.134 __641__ VGND VNB VPB VPWR __643__ sky130_fd_sc_hd__mux2_1
x__165__ counter.5 stored_values.133 __641__ VGND VNB VPB VPWR __644__ sky130_fd_sc_hd__mux2_1
x__166__ counter.4 stored_values.132 __641__ VGND VNB VPB VPWR __645__ sky130_fd_sc_hd__mux2_1
x__167__ counter.3 stored_values.131 __641__ VGND VNB VPB VPWR __646__ sky130_fd_sc_hd__mux2_1
x__168__ counter.2 stored_values.130 __641__ VGND VNB VPB VPWR __647__ sky130_fd_sc_hd__mux2_1
x__169__ counter.1 stored_values.129 __641__ VGND VNB VPB VPWR __648__ sky130_fd_sc_hd__mux2_1
x__170__ stored_values.128 __641__ VGND VNB VPB VPWR __649__ sky130_fd_sc_hd__nand2_1
x__171__ __455__ __641__ __649__ VGND VNB VPB VPWR __650__ sky130_fd_sc_hd__o21ai_0
x__172__ comp_prev.17 comp.17 VGND VNB VPB VPWR __652__ sky130_fd_sc_hd__nand2b_1
x__173__ counter.7 stored_values.143 __652__ VGND VNB VPB VPWR __653__ sky130_fd_sc_hd__mux2_1
x__174__ counter.6 stored_values.142 __652__ VGND VNB VPB VPWR __654__ sky130_fd_sc_hd__mux2_1
x__175__ counter.5 stored_values.141 __652__ VGND VNB VPB VPWR __655__ sky130_fd_sc_hd__mux2_1
x__176__ counter.4 stored_values.140 __652__ VGND VNB VPB VPWR __656__ sky130_fd_sc_hd__mux2_1
x__177__ counter.3 stored_values.139 __652__ VGND VNB VPB VPWR __657__ sky130_fd_sc_hd__mux2_1
x__178__ counter.2 stored_values.138 __652__ VGND VNB VPB VPWR __658__ sky130_fd_sc_hd__mux2_1
x__179__ counter.1 stored_values.137 __652__ VGND VNB VPB VPWR __659__ sky130_fd_sc_hd__mux2_1
x__180__ stored_values.136 __652__ VGND VNB VPB VPWR __660__ sky130_fd_sc_hd__nand2_1
x__181__ __455__ __652__ __660__ VGND VNB VPB VPWR __661__ sky130_fd_sc_hd__o21ai_0
x__182__ comp_prev.18 comp.18 VGND VNB VPB VPWR __663__ sky130_fd_sc_hd__nand2b_1
x__183__ counter.7 stored_values.151 __663__ VGND VNB VPB VPWR __664__ sky130_fd_sc_hd__mux2_1
x__184__ counter.6 stored_values.150 __663__ VGND VNB VPB VPWR __665__ sky130_fd_sc_hd__mux2_1
x__185__ counter.5 stored_values.149 __663__ VGND VNB VPB VPWR __666__ sky130_fd_sc_hd__mux2_1
x__186__ counter.4 stored_values.148 __663__ VGND VNB VPB VPWR __667__ sky130_fd_sc_hd__mux2_1
x__187__ counter.3 stored_values.147 __663__ VGND VNB VPB VPWR __668__ sky130_fd_sc_hd__mux2_1
x__188__ counter.2 stored_values.146 __663__ VGND VNB VPB VPWR __669__ sky130_fd_sc_hd__mux2_1
x__189__ counter.1 stored_values.145 __663__ VGND VNB VPB VPWR __670__ sky130_fd_sc_hd__mux2_1
x__190__ stored_values.144 __663__ VGND VNB VPB VPWR __671__ sky130_fd_sc_hd__nand2_1
x__191__ __455__ __663__ __671__ VGND VNB VPB VPWR __672__ sky130_fd_sc_hd__o21ai_0
x__192__ comp_prev.19 comp.19 VGND VNB VPB VPWR __674__ sky130_fd_sc_hd__nand2b_1
x__193__ counter.7 stored_values.159 __674__ VGND VNB VPB VPWR __675__ sky130_fd_sc_hd__mux2_1
x__194__ counter.6 stored_values.158 __674__ VGND VNB VPB VPWR __676__ sky130_fd_sc_hd__mux2_1
x__195__ counter.5 stored_values.157 __674__ VGND VNB VPB VPWR __677__ sky130_fd_sc_hd__mux2_1
x__196__ counter.4 stored_values.156 __674__ VGND VNB VPB VPWR __678__ sky130_fd_sc_hd__mux2_1
x__197__ counter.3 stored_values.155 __674__ VGND VNB VPB VPWR __679__ sky130_fd_sc_hd__mux2_1
x__198__ counter.2 stored_values.154 __674__ VGND VNB VPB VPWR __680__ sky130_fd_sc_hd__mux2_1
x__199__ counter.1 stored_values.153 __674__ VGND VNB VPB VPWR __681__ sky130_fd_sc_hd__mux2_1
x__200__ stored_values.152 __674__ VGND VNB VPB VPWR __682__ sky130_fd_sc_hd__nand2_1
x__201__ __455__ __674__ __682__ VGND VNB VPB VPWR __683__ sky130_fd_sc_hd__o21ai_0
x__202__ comp_prev.20 comp.20 VGND VNB VPB VPWR __685__ sky130_fd_sc_hd__nand2b_1
x__203__ counter.7 stored_values.167 __685__ VGND VNB VPB VPWR __686__ sky130_fd_sc_hd__mux2_1
x__204__ counter.6 stored_values.166 __685__ VGND VNB VPB VPWR __687__ sky130_fd_sc_hd__mux2_1
x__205__ counter.5 stored_values.165 __685__ VGND VNB VPB VPWR __688__ sky130_fd_sc_hd__mux2_1
x__206__ counter.4 stored_values.164 __685__ VGND VNB VPB VPWR __689__ sky130_fd_sc_hd__mux2_1
x__207__ counter.3 stored_values.163 __685__ VGND VNB VPB VPWR __690__ sky130_fd_sc_hd__mux2_1
x__208__ counter.2 stored_values.162 __685__ VGND VNB VPB VPWR __691__ sky130_fd_sc_hd__mux2_1
x__209__ counter.1 stored_values.161 __685__ VGND VNB VPB VPWR __692__ sky130_fd_sc_hd__mux2_1
x__210__ stored_values.160 __685__ VGND VNB VPB VPWR __693__ sky130_fd_sc_hd__nand2_1
x__211__ __455__ __685__ __693__ VGND VNB VPB VPWR __694__ sky130_fd_sc_hd__o21ai_0
x__212__ comp_prev.21 comp.21 VGND VNB VPB VPWR __696__ sky130_fd_sc_hd__nand2b_1
x__213__ counter.7 stored_values.175 __696__ VGND VNB VPB VPWR __697__ sky130_fd_sc_hd__mux2_1
x__214__ counter.6 stored_values.174 __696__ VGND VNB VPB VPWR __698__ sky130_fd_sc_hd__mux2_1
x__215__ counter.5 stored_values.173 __696__ VGND VNB VPB VPWR __699__ sky130_fd_sc_hd__mux2_1
x__216__ counter.4 stored_values.172 __696__ VGND VNB VPB VPWR __700__ sky130_fd_sc_hd__mux2_1
x__217__ counter.3 stored_values.171 __696__ VGND VNB VPB VPWR __701__ sky130_fd_sc_hd__mux2_1
x__218__ counter.2 stored_values.170 __696__ VGND VNB VPB VPWR __702__ sky130_fd_sc_hd__mux2_1
x__219__ counter.1 stored_values.169 __696__ VGND VNB VPB VPWR __703__ sky130_fd_sc_hd__mux2_1
x__220__ stored_values.168 __696__ VGND VNB VPB VPWR __704__ sky130_fd_sc_hd__nand2_1
x__221__ __455__ __696__ __704__ VGND VNB VPB VPWR __705__ sky130_fd_sc_hd__o21ai_0
x__222__ comp_prev.22 comp.22 VGND VNB VPB VPWR __707__ sky130_fd_sc_hd__nand2b_1
x__223__ counter.7 stored_values.183 __707__ VGND VNB VPB VPWR __708__ sky130_fd_sc_hd__mux2_1
x__224__ counter.6 stored_values.182 __707__ VGND VNB VPB VPWR __709__ sky130_fd_sc_hd__mux2_1
x__225__ counter.5 stored_values.181 __707__ VGND VNB VPB VPWR __710__ sky130_fd_sc_hd__mux2_1
x__226__ counter.4 stored_values.180 __707__ VGND VNB VPB VPWR __711__ sky130_fd_sc_hd__mux2_1
x__227__ counter.3 stored_values.179 __707__ VGND VNB VPB VPWR __712__ sky130_fd_sc_hd__mux2_1
x__228__ counter.2 stored_values.178 __707__ VGND VNB VPB VPWR __713__ sky130_fd_sc_hd__mux2_1
x__229__ counter.1 stored_values.177 __707__ VGND VNB VPB VPWR __714__ sky130_fd_sc_hd__mux2_1
x__230__ stored_values.176 __707__ VGND VNB VPB VPWR __715__ sky130_fd_sc_hd__nand2_1
x__231__ __455__ __707__ __715__ VGND VNB VPB VPWR __716__ sky130_fd_sc_hd__o21ai_0
x__232__ comp_prev.23 comp.23 VGND VNB VPB VPWR __718__ sky130_fd_sc_hd__nand2b_1
x__233__ counter.7 stored_values.191 __718__ VGND VNB VPB VPWR __719__ sky130_fd_sc_hd__mux2_1
x__234__ counter.6 stored_values.190 __718__ VGND VNB VPB VPWR __720__ sky130_fd_sc_hd__mux2_1
x__235__ counter.5 stored_values.189 __718__ VGND VNB VPB VPWR __721__ sky130_fd_sc_hd__mux2_1
x__236__ counter.4 stored_values.188 __718__ VGND VNB VPB VPWR __722__ sky130_fd_sc_hd__mux2_1
x__237__ counter.3 stored_values.187 __718__ VGND VNB VPB VPWR __723__ sky130_fd_sc_hd__mux2_1
x__238__ counter.2 stored_values.186 __718__ VGND VNB VPB VPWR __724__ sky130_fd_sc_hd__mux2_1
x__239__ counter.1 stored_values.185 __718__ VGND VNB VPB VPWR __725__ sky130_fd_sc_hd__mux2_1
x__240__ stored_values.184 __718__ VGND VNB VPB VPWR __726__ sky130_fd_sc_hd__nand2_1
x__241__ __455__ __718__ __726__ VGND VNB VPB VPWR __727__ sky130_fd_sc_hd__o21ai_0
x__242__ comp_prev.24 comp.24 VGND VNB VPB VPWR __729__ sky130_fd_sc_hd__nand2b_1
x__243__ counter.7 stored_values.199 __729__ VGND VNB VPB VPWR __730__ sky130_fd_sc_hd__mux2_1
x__244__ counter.6 stored_values.198 __729__ VGND VNB VPB VPWR __731__ sky130_fd_sc_hd__mux2_1
x__245__ counter.5 stored_values.197 __729__ VGND VNB VPB VPWR __732__ sky130_fd_sc_hd__mux2_1