* single_row_adc.spice
* File autogenerated by json2spice.py

* Standard Cell Includes
.include /foss/pdk/sky130A/libs.ref/sky130_fd_sc_hd/spice/sky130_fd_sc_hd.spice
.include /foss/pdk/sky130A/libs.ref/sky130_fd_sc_hd/spice/sky130_fd_sc_hd.spice
.include /foss/pdk/sky130A/libs.ref/sky130_fd_sc_hd/spice/sky130_fd_sc_hd.spice
.include /foss/pdk/sky130A/libs.ref/sky130_fd_sc_hd/spice/sky130_fd_sc_hd.spice
.include /foss/pdk/sky130A/libs.ref/sky130_fd_sc_hd/spice/sky130_fd_sc_hd.spice
.include /foss/pdk/sky130A/libs.ref/sky130_fd_sc_hd/spice/sky130_fd_sc_hd.spice
.include /foss/pdk/sky130A/libs.ref/sky130_fd_sc_hd/spice/sky130_fd_sc_hd.spice
.include /foss/pdk/sky130A/libs.ref/sky130_fd_sc_hd/spice/sky130_fd_sc_hd.spice
.include /foss/pdk/sky130A/libs.ref/sky130_fd_sc_hd/spice/sky130_fd_sc_hd.spice
.include /foss/pdk/sky130A/libs.ref/sky130_fd_sc_hd/spice/sky130_fd_sc_hd.spice
.include /foss/pdk/sky130A/libs.ref/sky130_fd_sc_hd/spice/sky130_fd_sc_hd.spice
.include /foss/pdk/sky130A/libs.ref/sky130_fd_sc_hd/spice/sky130_fd_sc_hd.spice
.include /foss/pdk/sky130A/libs.ref/sky130_fd_sc_hd/spice/sky130_fd_sc_hd.spice
.include /foss/pdk/sky130A/libs.ref/sky130_fd_sc_hd/spice/sky130_fd_sc_hd.spice

* Subcircuit Definition
.subckt single_row_adc clk reset comp.0 comp.1 comp.2 comp.3 comp.4 comp.5 comp.6 comp.7 comp.8 comp.9 comp.10 stored_values.0 stored_values.1 stored_values.2 stored_values.3 stored_values.4 stored_values.5 stored_values.6 stored_values.7 stored_values.8 stored_values.9 stored_values.10 stored_values.11 stored_values.12 stored_values.13 stored_values.14 stored_values.15 stored_values.16 stored_values.17 stored_values.18 stored_values.19 stored_values.20 stored_values.21 stored_values.22 stored_values.23 stored_values.24 stored_values.25 stored_values.26 stored_values.27 stored_values.28 stored_values.29 stored_values.30 stored_values.31 stored_values.32 stored_values.33 stored_values.34 stored_values.35 stored_values.36 stored_values.37 stored_values.38 stored_values.39 stored_values.40 stored_values.41 stored_values.42 stored_values.43 stored_values.44 stored_values.45 stored_values.46 stored_values.47 stored_values.48 stored_values.49 stored_values.50 stored_values.51 stored_values.52 stored_values.53 stored_values.54 stored_values.55 stored_values.56 stored_values.57 stored_values.58 stored_values.59 stored_values.60 stored_values.61 stored_values.62 stored_values.63 stored_values.64 stored_values.65 stored_values.66 stored_values.67 stored_values.68 stored_values.69 stored_values.70 stored_values.71 stored_values.72 stored_values.73 stored_values.74 stored_values.75 stored_values.76 stored_values.77 stored_values.78 stored_values.79 stored_values.80 stored_values.81 stored_values.82 stored_values.83 stored_values.84 stored_values.85 stored_values.86 stored_values.87 VGND VNB VPB VPWR

* Standard Cells
x0 reset VGND VNB VPB VPWR __103__ sky130_fd_sc_hd__clkinv_1
x1 reset VGND VNB VPB VPWR __104__ sky130_fd_sc_hd__clkinv_1
x2 reset VGND VNB VPB VPWR __105__ sky130_fd_sc_hd__clkinv_1
x3 reset VGND VNB VPB VPWR __106__ sky130_fd_sc_hd__clkinv_1
x4 reset VGND VNB VPB VPWR __107__ sky130_fd_sc_hd__clkinv_1
x5 reset VGND VNB VPB VPWR __108__ sky130_fd_sc_hd__clkinv_1
x6 reset VGND VNB VPB VPWR __109__ sky130_fd_sc_hd__clkinv_1
x7 reset VGND VNB VPB VPWR __110__ sky130_fd_sc_hd__clkinv_1
x8 reset VGND VNB VPB VPWR __111__ sky130_fd_sc_hd__clkinv_1
x9 reset VGND VNB VPB VPWR __112__ sky130_fd_sc_hd__clkinv_1
x10 reset VGND VNB VPB VPWR __113__ sky130_fd_sc_hd__clkinv_1
x11 reset VGND VNB VPB VPWR __114__ sky130_fd_sc_hd__clkinv_1
x12 reset VGND VNB VPB VPWR __115__ sky130_fd_sc_hd__clkinv_1
x13 reset VGND VNB VPB VPWR __116__ sky130_fd_sc_hd__clkinv_1
x14 reset VGND VNB VPB VPWR __117__ sky130_fd_sc_hd__clkinv_1
x15 reset VGND VNB VPB VPWR __118__ sky130_fd_sc_hd__clkinv_1
x16 reset VGND VNB VPB VPWR __119__ sky130_fd_sc_hd__clkinv_1
x17 reset VGND VNB VPB VPWR __120__ sky130_fd_sc_hd__clkinv_1
x18 reset VGND VNB VPB VPWR __121__ sky130_fd_sc_hd__clkinv_1
x19 reset VGND VNB VPB VPWR __122__ sky130_fd_sc_hd__clkinv_1
x20 reset VGND VNB VPB VPWR __123__ sky130_fd_sc_hd__clkinv_1
x21 reset VGND VNB VPB VPWR __124__ sky130_fd_sc_hd__clkinv_1
x22 reset VGND VNB VPB VPWR __125__ sky130_fd_sc_hd__clkinv_1
x23 reset VGND VNB VPB VPWR __126__ sky130_fd_sc_hd__clkinv_1
x24 reset VGND VNB VPB VPWR __127__ sky130_fd_sc_hd__clkinv_1
x25 reset VGND VNB VPB VPWR __128__ sky130_fd_sc_hd__clkinv_1
x26 reset VGND VNB VPB VPWR __129__ sky130_fd_sc_hd__clkinv_1
x27 reset VGND VNB VPB VPWR __130__ sky130_fd_sc_hd__clkinv_1
x28 reset VGND VNB VPB VPWR __131__ sky130_fd_sc_hd__clkinv_1
x29 reset VGND VNB VPB VPWR __132__ sky130_fd_sc_hd__clkinv_1
x30 reset VGND VNB VPB VPWR __133__ sky130_fd_sc_hd__clkinv_1
x31 reset VGND VNB VPB VPWR __134__ sky130_fd_sc_hd__clkinv_1
x32 reset VGND VNB VPB VPWR __135__ sky130_fd_sc_hd__clkinv_1
x33 reset VGND VNB VPB VPWR __136__ sky130_fd_sc_hd__clkinv_1
x34 reset VGND VNB VPB VPWR __137__ sky130_fd_sc_hd__clkinv_1
x35 reset VGND VNB VPB VPWR __138__ sky130_fd_sc_hd__clkinv_1
x36 reset VGND VNB VPB VPWR __139__ sky130_fd_sc_hd__clkinv_1
x37 reset VGND VNB VPB VPWR __140__ sky130_fd_sc_hd__clkinv_1
x38 reset VGND VNB VPB VPWR __141__ sky130_fd_sc_hd__clkinv_1
x39 reset VGND VNB VPB VPWR __142__ sky130_fd_sc_hd__clkinv_1
x40 reset VGND VNB VPB VPWR __143__ sky130_fd_sc_hd__clkinv_1
x41 reset VGND VNB VPB VPWR __144__ sky130_fd_sc_hd__clkinv_1
x42 reset VGND VNB VPB VPWR __145__ sky130_fd_sc_hd__clkinv_1
x43 reset VGND VNB VPB VPWR __146__ sky130_fd_sc_hd__clkinv_1
x44 reset VGND VNB VPB VPWR __147__ sky130_fd_sc_hd__clkinv_1
x45 reset VGND VNB VPB VPWR __148__ sky130_fd_sc_hd__clkinv_1
x46 reset VGND VNB VPB VPWR __149__ sky130_fd_sc_hd__clkinv_1
x47 reset VGND VNB VPB VPWR __150__ sky130_fd_sc_hd__clkinv_1
x48 reset VGND VNB VPB VPWR __151__ sky130_fd_sc_hd__clkinv_1
x49 reset VGND VNB VPB VPWR __152__ sky130_fd_sc_hd__clkinv_1
x50 reset VGND VNB VPB VPWR __153__ sky130_fd_sc_hd__clkinv_1
x51 reset VGND VNB VPB VPWR __154__ sky130_fd_sc_hd__clkinv_1
x52 reset VGND VNB VPB VPWR __155__ sky130_fd_sc_hd__clkinv_1
x53 reset VGND VNB VPB VPWR __156__ sky130_fd_sc_hd__clkinv_1
x54 reset VGND VNB VPB VPWR __157__ sky130_fd_sc_hd__clkinv_1
x55 counter.0 VGND VNB VPB VPWR __159__ sky130_fd_sc_hd__clkinv_1
x56 reset VGND VNB VPB VPWR __160__ sky130_fd_sc_hd__clkinv_1
x57 comp.0 comp_prev.0 VGND VNB VPB VPWR __162__ sky130_fd_sc_hd__lpflow_isobufsrc_1
x58 stored_values.7 counter.7 __162__ VGND VNB VPB VPWR __164__ sky130_fd_sc_hd__mux2_1
x59 stored_values.6 counter.6 __162__ VGND VNB VPB VPWR __166__ sky130_fd_sc_hd__mux2_1
x60 stored_values.5 counter.5 __162__ VGND VNB VPB VPWR __168__ sky130_fd_sc_hd__mux2_1
x61 stored_values.4 counter.4 __162__ VGND VNB VPB VPWR __170__ sky130_fd_sc_hd__mux2_1
x62 stored_values.3 counter.3 __162__ VGND VNB VPB VPWR __172__ sky130_fd_sc_hd__mux2_1
x63 stored_values.2 counter.2 __162__ VGND VNB VPB VPWR __174__ sky130_fd_sc_hd__mux2_1
x64 stored_values.1 counter.1 __162__ VGND VNB VPB VPWR __176__ sky130_fd_sc_hd__mux2_1
x65 stored_values.0 __162__ VGND VNB VPB VPWR __177__ sky130_fd_sc_hd__nor2_1
x66 __159__ __162__ __177__ VGND VNB VPB VPWR __178__ sky130_fd_sc_hd__a21oi_1
x67 comp_prev.1 comp.1 VGND VNB VPB VPWR __180__ sky130_fd_sc_hd__nand2b_1
x68 counter.7 stored_values.15 __180__ VGND VNB VPB VPWR __181__ sky130_fd_sc_hd__mux2_1
x69 counter.6 stored_values.14 __180__ VGND VNB VPB VPWR __182__ sky130_fd_sc_hd__mux2_1
x70 counter.5 stored_values.13 __180__ VGND VNB VPB VPWR __183__ sky130_fd_sc_hd__mux2_1
x71 counter.4 stored_values.12 __180__ VGND VNB VPB VPWR __184__ sky130_fd_sc_hd__mux2_1
x72 counter.3 stored_values.11 __180__ VGND VNB VPB VPWR __185__ sky130_fd_sc_hd__mux2_1
x73 counter.2 stored_values.10 __180__ VGND VNB VPB VPWR __186__ sky130_fd_sc_hd__mux2_1
x74 counter.1 stored_values.9 __180__ VGND VNB VPB VPWR __187__ sky130_fd_sc_hd__mux2_1
x75 stored_values.8 __180__ VGND VNB VPB VPWR __188__ sky130_fd_sc_hd__nand2_1
x76 __159__ __180__ __188__ VGND VNB VPB VPWR __189__ sky130_fd_sc_hd__o21ai_0
x77 comp_prev.2 comp.2 VGND VNB VPB VPWR __191__ sky130_fd_sc_hd__nand2b_1
x78 counter.7 stored_values.23 __191__ VGND VNB VPB VPWR __192__ sky130_fd_sc_hd__mux2_1
x79 counter.6 stored_values.22 __191__ VGND VNB VPB VPWR __193__ sky130_fd_sc_hd__mux2_1
x80 counter.5 stored_values.21 __191__ VGND VNB VPB VPWR __194__ sky130_fd_sc_hd__mux2_1
x81 counter.4 stored_values.20 __191__ VGND VNB VPB VPWR __195__ sky130_fd_sc_hd__mux2_1
x82 counter.3 stored_values.19 __191__ VGND VNB VPB VPWR __196__ sky130_fd_sc_hd__mux2_1
x83 counter.2 stored_values.18 __191__ VGND VNB VPB VPWR __197__ sky130_fd_sc_hd__mux2_1
x84 counter.1 stored_values.17 __191__ VGND VNB VPB VPWR __198__ sky130_fd_sc_hd__mux2_1
x85 stored_values.16 __191__ VGND VNB VPB VPWR __199__ sky130_fd_sc_hd__nand2_1
x86 __159__ __191__ __199__ VGND VNB VPB VPWR __200__ sky130_fd_sc_hd__o21ai_0
x87 comp_prev.3 comp.3 VGND VNB VPB VPWR __202__ sky130_fd_sc_hd__nand2b_1
x88 counter.7 stored_values.31 __202__ VGND VNB VPB VPWR __203__ sky130_fd_sc_hd__mux2_1
x89 counter.6 stored_values.30 __202__ VGND VNB VPB VPWR __204__ sky130_fd_sc_hd__mux2_1
x90 counter.5 stored_values.29 __202__ VGND VNB VPB VPWR __205__ sky130_fd_sc_hd__mux2_1
x91 counter.4 stored_values.28 __202__ VGND VNB VPB VPWR __206__ sky130_fd_sc_hd__mux2_1
x92 counter.3 stored_values.27 __202__ VGND VNB VPB VPWR __207__ sky130_fd_sc_hd__mux2_1
x93 counter.2 stored_values.26 __202__ VGND VNB VPB VPWR __208__ sky130_fd_sc_hd__mux2_1
x94 counter.1 stored_values.25 __202__ VGND VNB VPB VPWR __209__ sky130_fd_sc_hd__mux2_1
x95 stored_values.24 __202__ VGND VNB VPB VPWR __210__ sky130_fd_sc_hd__nand2_1
x96 __159__ __202__ __210__ VGND VNB VPB VPWR __211__ sky130_fd_sc_hd__o21ai_0
x97 comp_prev.4 comp.4 VGND VNB VPB VPWR __213__ sky130_fd_sc_hd__nand2b_1
x98 counter.7 stored_values.39 __213__ VGND VNB VPB VPWR __214__ sky130_fd_sc_hd__mux2_1
x99 counter.6 stored_values.38 __213__ VGND VNB VPB VPWR __215__ sky130_fd_sc_hd__mux2_1
x100 counter.5 stored_values.37 __213__ VGND VNB VPB VPWR __216__ sky130_fd_sc_hd__mux2_1
x101 counter.4 stored_values.36 __213__ VGND VNB VPB VPWR __217__ sky130_fd_sc_hd__mux2_1
x102 counter.3 stored_values.35 __213__ VGND VNB VPB VPWR __218__ sky130_fd_sc_hd__mux2_1
x103 counter.2 stored_values.34 __213__ VGND VNB VPB VPWR __219__ sky130_fd_sc_hd__mux2_1
x104 counter.1 stored_values.33 __213__ VGND VNB VPB VPWR __220__ sky130_fd_sc_hd__mux2_1
x105 stored_values.32 __213__ VGND VNB VPB VPWR __221__ sky130_fd_sc_hd__nand2_1
x106 __159__ __213__ __221__ VGND VNB VPB VPWR __222__ sky130_fd_sc_hd__o21ai_0
x107 comp_prev.5 comp.5 VGND VNB VPB VPWR __224__ sky130_fd_sc_hd__nand2b_1
x108 counter.7 stored_values.47 __224__ VGND VNB VPB VPWR __225__ sky130_fd_sc_hd__mux2_1
x109 counter.6 stored_values.46 __224__ VGND VNB VPB VPWR __226__ sky130_fd_sc_hd__mux2_1
x110 counter.5 stored_values.45 __224__ VGND VNB VPB VPWR __227__ sky130_fd_sc_hd__mux2_1
x111 counter.4 stored_values.44 __224__ VGND VNB VPB VPWR __228__ sky130_fd_sc_hd__mux2_1
x112 counter.3 stored_values.43 __224__ VGND VNB VPB VPWR __229__ sky130_fd_sc_hd__mux2_1
x113 counter.2 stored_values.42 __224__ VGND VNB VPB VPWR __230__ sky130_fd_sc_hd__mux2_1
x114 counter.1 stored_values.41 __224__ VGND VNB VPB VPWR __231__ sky130_fd_sc_hd__mux2_1
x115 stored_values.40 __224__ VGND VNB VPB VPWR __232__ sky130_fd_sc_hd__nand2_1
x116 __159__ __224__ __232__ VGND VNB VPB VPWR __233__ sky130_fd_sc_hd__o21ai_0
x117 comp_prev.6 comp.6 VGND VNB VPB VPWR __235__ sky130_fd_sc_hd__nand2b_1
x118 counter.7 stored_values.55 __235__ VGND VNB VPB VPWR __236__ sky130_fd_sc_hd__mux2_1
x119 counter.6 stored_values.54 __235__ VGND VNB VPB VPWR __237__ sky130_fd_sc_hd__mux2_1
x120 counter.5 stored_values.53 __235__ VGND VNB VPB VPWR __238__ sky130_fd_sc_hd__mux2_1
x121 counter.4 stored_values.52 __235__ VGND VNB VPB VPWR __239__ sky130_fd_sc_hd__mux2_1
x122 counter.3 stored_values.51 __235__ VGND VNB VPB VPWR __240__ sky130_fd_sc_hd__mux2_1
x123 counter.2 stored_values.50 __235__ VGND VNB VPB VPWR __241__ sky130_fd_sc_hd__mux2_1
x124 counter.1 stored_values.49 __235__ VGND VNB VPB VPWR __242__ sky130_fd_sc_hd__mux2_1
x125 stored_values.48 __235__ VGND VNB VPB VPWR __243__ sky130_fd_sc_hd__nand2_1
x126 __159__ __235__ __243__ VGND VNB VPB VPWR __244__ sky130_fd_sc_hd__o21ai_0
x127 comp_prev.7 comp.7 VGND VNB VPB VPWR __246__ sky130_fd_sc_hd__nand2b_1
x128 counter.7 stored_values.63 __246__ VGND VNB VPB VPWR __247__ sky130_fd_sc_hd__mux2_1
x129 counter.6 stored_values.62 __246__ VGND VNB VPB VPWR __248__ sky130_fd_sc_hd__mux2_1
x130 counter.5 stored_values.61 __246__ VGND VNB VPB VPWR __249__ sky130_fd_sc_hd__mux2_1
x131 counter.4 stored_values.60 __246__ VGND VNB VPB VPWR __250__ sky130_fd_sc_hd__mux2_1
x132 counter.3 stored_values.59 __246__ VGND VNB VPB VPWR __251__ sky130_fd_sc_hd__mux2_1
x133 counter.2 stored_values.58 __246__ VGND VNB VPB VPWR __252__ sky130_fd_sc_hd__mux2_1
x134 counter.1 stored_values.57 __246__ VGND VNB VPB VPWR __253__ sky130_fd_sc_hd__mux2_1
x135 stored_values.56 __246__ VGND VNB VPB VPWR __254__ sky130_fd_sc_hd__nand2_1
x136 __159__ __246__ __254__ VGND VNB VPB VPWR __255__ sky130_fd_sc_hd__o21ai_0
x137 comp_prev.8 comp.8 VGND VNB VPB VPWR __257__ sky130_fd_sc_hd__nand2b_1
x138 counter.7 stored_values.71 __257__ VGND VNB VPB VPWR __258__ sky130_fd_sc_hd__mux2_1
x139 counter.6 stored_values.70 __257__ VGND VNB VPB VPWR __259__ sky130_fd_sc_hd__mux2_1
x140 counter.5 stored_values.69 __257__ VGND VNB VPB VPWR __260__ sky130_fd_sc_hd__mux2_1
x141 counter.4 stored_values.68 __257__ VGND VNB VPB VPWR __261__ sky130_fd_sc_hd__mux2_1
x142 counter.3 stored_values.67 __257__ VGND VNB VPB VPWR __262__ sky130_fd_sc_hd__mux2_1
x143 counter.2 stored_values.66 __257__ VGND VNB VPB VPWR __263__ sky130_fd_sc_hd__mux2_1
x144 counter.1 stored_values.65 __257__ VGND VNB VPB VPWR __264__ sky130_fd_sc_hd__mux2_1
x145 stored_values.64 __257__ VGND VNB VPB VPWR __265__ sky130_fd_sc_hd__nand2_1
x146 __159__ __257__ __265__ VGND VNB VPB VPWR __266__ sky130_fd_sc_hd__o21ai_0
x147 comp_prev.9 comp.9 VGND VNB VPB VPWR __268__ sky130_fd_sc_hd__nand2b_1
x148 counter.7 stored_values.79 __268__ VGND VNB VPB VPWR __269__ sky130_fd_sc_hd__mux2_1
x149 counter.6 stored_values.78 __268__ VGND VNB VPB VPWR __270__ sky130_fd_sc_hd__mux2_1
x150 counter.5 stored_values.77 __268__ VGND VNB VPB VPWR __271__ sky130_fd_sc_hd__mux2_1
x151 counter.4 stored_values.76 __268__ VGND VNB VPB VPWR __272__ sky130_fd_sc_hd__mux2_1
x152 counter.3 stored_values.75 __268__ VGND VNB VPB VPWR __273__ sky130_fd_sc_hd__mux2_1
x153 counter.2 stored_values.74 __268__ VGND VNB VPB VPWR __274__ sky130_fd_sc_hd__mux2_1
x154 counter.1 stored_values.73 __268__ VGND VNB VPB VPWR __275__ sky130_fd_sc_hd__mux2_1
x155 stored_values.72 __268__ VGND VNB VPB VPWR __276__ sky130_fd_sc_hd__nand2_1
x156 __159__ __268__ __276__ VGND VNB VPB VPWR __277__ sky130_fd_sc_hd__o21ai_0
x157 comp_prev.10 comp.10 VGND VNB VPB VPWR __279__ sky130_fd_sc_hd__nand2b_1
x158 counter.7 stored_values.87 __279__ VGND VNB VPB VPWR __280__ sky130_fd_sc_hd__mux2_1
x159 counter.6 stored_values.86 __279__ VGND VNB VPB VPWR __281__ sky130_fd_sc_hd__mux2_1
x160 counter.5 stored_values.85 __279__ VGND VNB VPB VPWR __282__ sky130_fd_sc_hd__mux2_1
x161 counter.4 stored_values.84 __279__ VGND VNB VPB VPWR __283__ sky130_fd_sc_hd__mux2_1
x162 counter.3 stored_values.83 __279__ VGND VNB VPB VPWR __284__ sky130_fd_sc_hd__mux2_1
x163 counter.2 stored_values.82 __279__ VGND VNB VPB VPWR __285__ sky130_fd_sc_hd__mux2_1
x164 counter.1 stored_values.81 __279__ VGND VNB VPB VPWR __286__ sky130_fd_sc_hd__mux2_1
x165 stored_values.80 __279__ VGND VNB VPB VPWR __287__ sky130_fd_sc_hd__nand2_1
x166 __159__ __279__ __287__ VGND VNB VPB VPWR __288__ sky130_fd_sc_hd__o21ai_0
x167 counter.1 counter.0 VGND VNB VPB VPWR __289__ sky130_fd_sc_hd__nand2_1
x168 counter.1 counter.0 VGND VNB VPB VPWR __290__ sky130_fd_sc_hd__xor2_1
x169 counter.2 __289__ VGND VNB VPB VPWR __291__ sky130_fd_sc_hd__xnor2_1
x170 counter.3 counter.2 counter.1 counter.0 VGND VNB VPB VPWR __292__ sky130_fd_sc_hd__and4_1
x171 counter.2 counter.1 counter.0 counter.3 VGND VNB VPB VPWR __293__ sky130_fd_sc_hd__a31oi_1
x172 __292__ __293__ VGND VNB VPB VPWR __294__ sky130_fd_sc_hd__nor2_1
x173 counter.4 __292__ VGND VNB VPB VPWR __295__ sky130_fd_sc_hd__nand2_1
x174 counter.4 __292__ VGND VNB VPB VPWR __296__ sky130_fd_sc_hd__xor2_1
x175 counter.5 __295__ VGND VNB VPB VPWR __297__ sky130_fd_sc_hd__xnor2_1
x176 counter.6 counter.5 counter.4 __292__ VGND VNB VPB VPWR __298__ sky130_fd_sc_hd__nand4_1
x177 counter.5 counter.4 __292__ counter.6 VGND VNB VPB VPWR __299__ sky130_fd_sc_hd__a31oi_1
x178 __298__ __299__ VGND VNB VPB VPWR __300__ sky130_fd_sc_hd__lpflow_isobufsrc_1
x179 counter.7 __298__ VGND VNB VPB VPWR __301__ sky130_fd_sc_hd__xnor2_1
x180 reset VGND VNB VPB VPWR __302__ sky130_fd_sc_hd__clkinv_1
x181 reset VGND VNB VPB VPWR __303__ sky130_fd_sc_hd__clkinv_1
x182 reset VGND VNB VPB VPWR __304__ sky130_fd_sc_hd__clkinv_1
x183 reset VGND VNB VPB VPWR __305__ sky130_fd_sc_hd__clkinv_1
x184 reset VGND VNB VPB VPWR __306__ sky130_fd_sc_hd__clkinv_1
x185 reset VGND VNB VPB VPWR __307__ sky130_fd_sc_hd__clkinv_1
x186 reset VGND VNB VPB VPWR __308__ sky130_fd_sc_hd__clkinv_1
x187 reset VGND VNB VPB VPWR __309__ sky130_fd_sc_hd__clkinv_1
x188 reset VGND VNB VPB VPWR __310__ sky130_fd_sc_hd__clkinv_1
x189 reset VGND VNB VPB VPWR __311__ sky130_fd_sc_hd__clkinv_1
x190 reset VGND VNB VPB VPWR __312__ sky130_fd_sc_hd__clkinv_1
x191 reset VGND VNB VPB VPWR __313__ sky130_fd_sc_hd__clkinv_1
x192 reset VGND VNB VPB VPWR __314__ sky130_fd_sc_hd__clkinv_1
x193 reset VGND VNB VPB VPWR __315__ sky130_fd_sc_hd__clkinv_1
x194 reset VGND VNB VPB VPWR __316__ sky130_fd_sc_hd__clkinv_1
x195 reset VGND VNB VPB VPWR __317__ sky130_fd_sc_hd__clkinv_1
x196 reset VGND VNB VPB VPWR __318__ sky130_fd_sc_hd__clkinv_1
x197 reset VGND VNB VPB VPWR __319__ sky130_fd_sc_hd__clkinv_1
x198 reset VGND VNB VPB VPWR __320__ sky130_fd_sc_hd__clkinv_1
x199 reset VGND VNB VPB VPWR __321__ sky130_fd_sc_hd__clkinv_1
x200 reset VGND VNB VPB VPWR __322__ sky130_fd_sc_hd__clkinv_1
x201 reset VGND VNB VPB VPWR __323__ sky130_fd_sc_hd__clkinv_1
x202 reset VGND VNB VPB VPWR __324__ sky130_fd_sc_hd__clkinv_1
x203 reset VGND VNB VPB VPWR __325__ sky130_fd_sc_hd__clkinv_1
x204 reset VGND VNB VPB VPWR __326__ sky130_fd_sc_hd__clkinv_1
x205 reset VGND VNB VPB VPWR __327__ sky130_fd_sc_hd__clkinv_1
x206 reset VGND VNB VPB VPWR __328__ sky130_fd_sc_hd__clkinv_1
x207 reset VGND VNB VPB VPWR __329__ sky130_fd_sc_hd__clkinv_1
x208 reset VGND VNB VPB VPWR __330__ sky130_fd_sc_hd__clkinv_1
x209 reset VGND VNB VPB VPWR __331__ sky130_fd_sc_hd__clkinv_1
x210 reset VGND VNB VPB VPWR __332__ sky130_fd_sc_hd__clkinv_1
x211 reset VGND VNB VPB VPWR __333__ sky130_fd_sc_hd__clkinv_1
x212 reset VGND VNB VPB VPWR __334__ sky130_fd_sc_hd__clkinv_1
x213 reset VGND VNB VPB VPWR __335__ sky130_fd_sc_hd__clkinv_1
x214 reset VGND VNB VPB VPWR __336__ sky130_fd_sc_hd__clkinv_1
x215 reset VGND VNB VPB VPWR __337__ sky130_fd_sc_hd__clkinv_1
x216 reset VGND VNB VPB VPWR __338__ sky130_fd_sc_hd__clkinv_1
x217 reset VGND VNB VPB VPWR __339__ sky130_fd_sc_hd__clkinv_1
x218 reset VGND VNB VPB VPWR __340__ sky130_fd_sc_hd__clkinv_1
x219 reset VGND VNB VPB VPWR __341__ sky130_fd_sc_hd__clkinv_1
x220 reset VGND VNB VPB VPWR __342__ sky130_fd_sc_hd__clkinv_1
x221 reset VGND VNB VPB VPWR __343__ sky130_fd_sc_hd__clkinv_1
x222 reset VGND VNB VPB VPWR __344__ sky130_fd_sc_hd__clkinv_1
x223 reset VGND VNB VPB VPWR __345__ sky130_fd_sc_hd__clkinv_1
x224 reset VGND VNB VPB VPWR __346__ sky130_fd_sc_hd__clkinv_1
x225 reset VGND VNB VPB VPWR __347__ sky130_fd_sc_hd__clkinv_1
x226 reset VGND VNB VPB VPWR __348__ sky130_fd_sc_hd__clkinv_1
x227 reset VGND VNB VPB VPWR __349__ sky130_fd_sc_hd__clkinv_1
x228 reset VGND VNB VPB VPWR __350__ sky130_fd_sc_hd__clkinv_1
x229 reset VGND VNB VPB VPWR __351__ sky130_fd_sc_hd__clkinv_1
x230 reset VGND VNB VPB VPWR __352__ sky130_fd_sc_hd__clkinv_1
x231 clk __288__ __160__ VGND VNB VPB VPWR stored_values.80 sky130_fd_sc_hd__dfrtp_1
x232 clk __286__ __302__ VGND VNB VPB VPWR stored_values.81 sky130_fd_sc_hd__dfrtp_1
x233 clk __285__ __303__ VGND VNB VPB VPWR stored_values.82 sky130_fd_sc_hd__dfrtp_1
x234 clk __284__ __304__ VGND VNB VPB VPWR stored_values.83 sky130_fd_sc_hd__dfrtp_1
x235 clk __283__ __305__ VGND VNB VPB VPWR stored_values.84 sky130_fd_sc_hd__dfrtp_1
x236 clk __282__ __306__ VGND VNB VPB VPWR stored_values.85 sky130_fd_sc_hd__dfrtp_1
x237 clk __281__ __307__ VGND VNB VPB VPWR stored_values.86 sky130_fd_sc_hd__dfrtp_1
x238 clk __280__ __308__ VGND VNB VPB VPWR stored_values.87 sky130_fd_sc_hd__dfrtp_1
x239 clk __277__ __309__ VGND VNB VPB VPWR stored_values.72 sky130_fd_sc_hd__dfrtp_1
x240 clk __275__ __310__ VGND VNB VPB VPWR stored_values.73 sky130_fd_sc_hd__dfrtp_1
x241 clk __274__ __311__ VGND VNB VPB VPWR stored_values.74 sky130_fd_sc_hd__dfrtp_1
x242 clk __273__ __312__ VGND VNB VPB VPWR stored_values.75 sky130_fd_sc_hd__dfrtp_1
x243 clk __272__ __313__ VGND VNB VPB VPWR stored_values.76 sky130_fd_sc_hd__dfrtp_1
x244 clk __271__ __314__ VGND VNB VPB VPWR stored_values.77 sky130_fd_sc_hd__dfrtp_1
x245 clk __270__ __315__ VGND VNB VPB VPWR stored_values.78 sky130_fd_sc_hd__dfrtp_1
x246 clk __269__ __316__ VGND VNB VPB VPWR stored_values.79 sky130_fd_sc_hd__dfrtp_1
x247 clk __266__ __317__ VGND VNB VPB VPWR stored_values.64 sky130_fd_sc_hd__dfrtp_1
x248 clk __264__ __318__ VGND VNB VPB VPWR stored_values.65 sky130_fd_sc_hd__dfrtp_1
x249 clk __263__ __319__ VGND VNB VPB VPWR stored_values.66 sky130_fd_sc_hd__dfrtp_1
x250 clk __262__ __320__ VGND VNB VPB VPWR stored_values.67 sky130_fd_sc_hd__dfrtp_1
x251 clk __261__ __321__ VGND VNB VPB VPWR stored_values.68 sky130_fd_sc_hd__dfrtp_1
x252 clk __260__ __322__ VGND VNB VPB VPWR stored_values.69 sky130_fd_sc_hd__dfrtp_1
x253 clk __259__ __323__ VGND VNB VPB VPWR stored_values.70 sky130_fd_sc_hd__dfrtp_1
x254 clk __258__ __324__ VGND VNB VPB VPWR stored_values.71 sky130_fd_sc_hd__dfrtp_1
x255 clk __255__ __325__ VGND VNB VPB VPWR stored_values.56 sky130_fd_sc_hd__dfrtp_1
x256 clk __253__ __326__ VGND VNB VPB VPWR stored_values.57 sky130_fd_sc_hd__dfrtp_1
x257 clk __252__ __327__ VGND VNB VPB VPWR stored_values.58 sky130_fd_sc_hd__dfrtp_1
x258 clk __251__ __328__ VGND VNB VPB VPWR stored_values.59 sky130_fd_sc_hd__dfrtp_1
x259 clk __250__ __329__ VGND VNB VPB VPWR stored_values.60 sky130_fd_sc_hd__dfrtp_1
x260 clk __249__ __330__ VGND VNB VPB VPWR stored_values.61 sky130_fd_sc_hd__dfrtp_1
x261 clk __248__ __331__ VGND VNB VPB VPWR stored_values.62 sky130_fd_sc_hd__dfrtp_1
x262 clk __247__ __332__ VGND VNB VPB VPWR stored_values.63 sky130_fd_sc_hd__dfrtp_1
x263 clk __244__ __333__ VGND VNB VPB VPWR stored_values.48 sky130_fd_sc_hd__dfrtp_1
x264 clk __242__ __334__ VGND VNB VPB VPWR stored_values.49 sky130_fd_sc_hd__dfrtp_1
x265 clk __241__ __335__ VGND VNB VPB VPWR stored_values.50 sky130_fd_sc_hd__dfrtp_1
x266 clk __240__ __336__ VGND VNB VPB VPWR stored_values.51 sky130_fd_sc_hd__dfrtp_1
x267 clk __239__ __337__ VGND VNB VPB VPWR stored_values.52 sky130_fd_sc_hd__dfrtp_1
x268 clk __238__ __338__ VGND VNB VPB VPWR stored_values.53 sky130_fd_sc_hd__dfrtp_1
x269 clk __237__ __339__ VGND VNB VPB VPWR stored_values.54 sky130_fd_sc_hd__dfrtp_1
x270 clk __236__ __340__ VGND VNB VPB VPWR stored_values.55 sky130_fd_sc_hd__dfrtp_1
x271 clk __233__ __341__ VGND VNB VPB VPWR stored_values.40 sky130_fd_sc_hd__dfrtp_1
x272 clk __231__ __342__ VGND VNB VPB VPWR stored_values.41 sky130_fd_sc_hd__dfrtp_1
x273 clk __230__ __343__ VGND VNB VPB VPWR stored_values.42 sky130_fd_sc_hd__dfrtp_1
x274 clk __229__ __344__ VGND VNB VPB VPWR stored_values.43 sky130_fd_sc_hd__dfrtp_1
x275 clk __228__ __345__ VGND VNB VPB VPWR stored_values.44 sky130_fd_sc_hd__dfrtp_1
x276 clk __227__ __346__ VGND VNB VPB VPWR stored_values.45 sky130_fd_sc_hd__dfrtp_1
x277 clk __226__ __347__ VGND VNB VPB VPWR stored_values.46 sky130_fd_sc_hd__dfrtp_1
x278 clk __225__ __348__ VGND VNB VPB VPWR stored_values.47 sky130_fd_sc_hd__dfrtp_1
x279 clk __222__ __349__ VGND VNB VPB VPWR stored_values.32 sky130_fd_sc_hd__dfrtp_1
x280 clk __220__ __350__ VGND VNB VPB VPWR stored_values.33 sky130_fd_sc_hd__dfrtp_1
x281 clk __219__ __351__ VGND VNB VPB VPWR stored_values.34 sky130_fd_sc_hd__dfrtp_1
x282 clk __218__ __352__ VGND VNB VPB VPWR stored_values.35 sky130_fd_sc_hd__dfrtp_1
x283 clk __217__ __103__ VGND VNB VPB VPWR stored_values.36 sky130_fd_sc_hd__dfrtp_1
x284 clk __216__ __104__ VGND VNB VPB VPWR stored_values.37 sky130_fd_sc_hd__dfrtp_1
x285 clk __215__ __105__ VGND VNB VPB VPWR stored_values.38 sky130_fd_sc_hd__dfrtp_1
x286 clk __214__ __106__ VGND VNB VPB VPWR stored_values.39 sky130_fd_sc_hd__dfrtp_1
x287 clk comp.0 __107__ VGND VNB VPB VPWR comp_prev.0 sky130_fd_sc_hd__dfrtp_1
x288 clk comp.1 __108__ VGND VNB VPB VPWR comp_prev.1 sky130_fd_sc_hd__dfrtp_1
x289 clk comp.2 __109__ VGND VNB VPB VPWR comp_prev.2 sky130_fd_sc_hd__dfrtp_1
x290 clk comp.3 __110__ VGND VNB VPB VPWR comp_prev.3 sky130_fd_sc_hd__dfrtp_1
x291 clk comp.4 __111__ VGND VNB VPB VPWR comp_prev.4 sky130_fd_sc_hd__dfrtp_1
x292 clk comp.5 __112__ VGND VNB VPB VPWR comp_prev.5 sky130_fd_sc_hd__dfrtp_1
x293 clk comp.6 __113__ VGND VNB VPB VPWR comp_prev.6 sky130_fd_sc_hd__dfrtp_1
x294 clk comp.7 __114__ VGND VNB VPB VPWR comp_prev.7 sky130_fd_sc_hd__dfrtp_1
x295 clk comp.8 __115__ VGND VNB VPB VPWR comp_prev.8 sky130_fd_sc_hd__dfrtp_1
x296 clk comp.9 __116__ VGND VNB VPB VPWR comp_prev.9 sky130_fd_sc_hd__dfrtp_1
x297 clk comp.10 __117__ VGND VNB VPB VPWR comp_prev.10 sky130_fd_sc_hd__dfrtp_1
x298 clk __211__ __118__ VGND VNB VPB VPWR stored_values.24 sky130_fd_sc_hd__dfrtp_1
x299 clk __209__ __119__ VGND VNB VPB VPWR stored_values.25 sky130_fd_sc_hd__dfrtp_1
x300 clk __208__ __120__ VGND VNB VPB VPWR stored_values.26 sky130_fd_sc_hd__dfrtp_1
x301 clk __207__ __121__ VGND VNB VPB VPWR stored_values.27 sky130_fd_sc_hd__dfrtp_1
x302 clk __206__ __122__ VGND VNB VPB VPWR stored_values.28 sky130_fd_sc_hd__dfrtp_1
x303 clk __205__ __123__ VGND VNB VPB VPWR stored_values.29 sky130_fd_sc_hd__dfrtp_1
x304 clk __204__ __124__ VGND VNB VPB VPWR stored_values.30 sky130_fd_sc_hd__dfrtp_1
x305 clk __203__ __125__ VGND VNB VPB VPWR stored_values.31 sky130_fd_sc_hd__dfrtp_1
x306 clk __200__ __126__ VGND VNB VPB VPWR stored_values.16 sky130_fd_sc_hd__dfrtp_1
x307 clk __198__ __127__ VGND VNB VPB VPWR stored_values.17 sky130_fd_sc_hd__dfrtp_1
x308 clk __197__ __128__ VGND VNB VPB VPWR stored_values.18 sky130_fd_sc_hd__dfrtp_1
x309 clk __196__ __129__ VGND VNB VPB VPWR stored_values.19 sky130_fd_sc_hd__dfrtp_1
x310 clk __195__ __130__ VGND VNB VPB VPWR stored_values.20 sky130_fd_sc_hd__dfrtp_1
x311 clk __194__ __131__ VGND VNB VPB VPWR stored_values.21 sky130_fd_sc_hd__dfrtp_1
x312 clk __193__ __132__ VGND VNB VPB VPWR stored_values.22 sky130_fd_sc_hd__dfrtp_1
x313 clk __192__ __133__ VGND VNB VPB VPWR stored_values.23 sky130_fd_sc_hd__dfrtp_1
x314 clk __189__ __134__ VGND VNB VPB VPWR stored_values.8 sky130_fd_sc_hd__dfrtp_1
x315 clk __187__ __135__ VGND VNB VPB VPWR stored_values.9 sky130_fd_sc_hd__dfrtp_1
x316 clk __186__ __136__ VGND VNB VPB VPWR stored_values.10 sky130_fd_sc_hd__dfrtp_1
x317 clk __185__ __137__ VGND VNB VPB VPWR stored_values.11 sky130_fd_sc_hd__dfrtp_1
x318 clk __184__ __138__ VGND VNB VPB VPWR stored_values.12 sky130_fd_sc_hd__dfrtp_1
x319 clk __183__ __139__ VGND VNB VPB VPWR stored_values.13 sky130_fd_sc_hd__dfrtp_1
x320 clk __182__ __140__ VGND VNB VPB VPWR stored_values.14 sky130_fd_sc_hd__dfrtp_1
x321 clk __181__ __141__ VGND VNB VPB VPWR stored_values.15 sky130_fd_sc_hd__dfrtp_1
x322 clk __178__ __142__ VGND VNB VPB VPWR stored_values.0 sky130_fd_sc_hd__dfrtp_1
x323 clk __176__ __143__ VGND VNB VPB VPWR stored_values.1 sky130_fd_sc_hd__dfrtp_1
x324 clk __174__ __144__ VGND VNB VPB VPWR stored_values.2 sky130_fd_sc_hd__dfrtp_1
x325 clk __172__ __145__ VGND VNB VPB VPWR stored_values.3 sky130_fd_sc_hd__dfrtp_1
x326 clk __170__ __146__ VGND VNB VPB VPWR stored_values.4 sky130_fd_sc_hd__dfrtp_1
x327 clk __168__ __147__ VGND VNB VPB VPWR stored_values.5 sky130_fd_sc_hd__dfrtp_1
x328 clk __166__ __148__ VGND VNB VPB VPWR stored_values.6 sky130_fd_sc_hd__dfrtp_1
x329 clk __164__ __149__ VGND VNB VPB VPWR stored_values.7 sky130_fd_sc_hd__dfrtp_1
x330 clk __159__ __150__ VGND VNB VPB VPWR counter.0 sky130_fd_sc_hd__dfrtp_1
x331 clk __290__ __151__ VGND VNB VPB VPWR counter.1 sky130_fd_sc_hd__dfrtp_1
x332 clk __291__ __152__ VGND VNB VPB VPWR counter.2 sky130_fd_sc_hd__dfrtp_1
x333 clk __294__ __153__ VGND VNB VPB VPWR counter.3 sky130_fd_sc_hd__dfrtp_1
x334 clk __296__ __154__ VGND VNB VPB VPWR counter.4 sky130_fd_sc_hd__dfrtp_1
x335 clk __297__ __155__ VGND VNB VPB VPWR counter.5 sky130_fd_sc_hd__dfrtp_1
x336 clk __300__ __156__ VGND VNB VPB VPWR counter.6 sky130_fd_sc_hd__dfrtp_1
x337 clk __301__ __157__ VGND VNB VPB VPWR counter.7 sky130_fd_sc_hd__dfrtp_1

* Tieoffs

.ends

