* edge_detector.spice
* File autogenerated by json2spice.py

* Subcircuit Definition
.subckt edge_detector9 clk reset comp.40 comp.41 comp.42 comp.43 comp.44 enable.40 enable.41 enable.42 enable.43 enable.44 VGND VNB VPB VPWR

* Standard Cells
x__0__ comp.40 comp_prev.0 VGND VNB VPB VPWR enable.40 sky130_fd_sc_hd__lpflow_isobufsrc_1
x__1__ comp.41 comp_prev.1 VGND VNB VPB VPWR enable.41 sky130_fd_sc_hd__lpflow_isobufsrc_1
x__2__ comp.42 comp_prev.2 VGND VNB VPB VPWR enable.42 sky130_fd_sc_hd__lpflow_isobufsrc_1
x__3__ comp.43 comp_prev.3 VGND VNB VPB VPWR enable.43 sky130_fd_sc_hd__lpflow_isobufsrc_1
x__4__ comp.44 comp_prev.4 VGND VNB VPB VPWR enable.44 sky130_fd_sc_hd__lpflow_isobufsrc_1
x__5__ comp.44 reset VGND VNB VPB VPWR __19__ sky130_fd_sc_hd__lpflow_isobufsrc_1
x__6__ comp.40 reset VGND VNB VPB VPWR __20__ sky130_fd_sc_hd__lpflow_isobufsrc_1
x__7__ comp.41 reset VGND VNB VPB VPWR __21__ sky130_fd_sc_hd__lpflow_isobufsrc_1
x__8__ comp.42 reset VGND VNB VPB VPWR __22__ sky130_fd_sc_hd__lpflow_isobufsrc_1
x__9__ comp.43 reset VGND VNB VPB VPWR __23__ sky130_fd_sc_hd__lpflow_isobufsrc_1
x__10__ clk __19__ VGND VNB VPB VPWR comp_prev.4 sky130_fd_sc_hd__dfxtp_1
x__11__ clk __20__ VGND VNB VPB VPWR comp_prev.0 sky130_fd_sc_hd__dfxtp_1
x__12__ clk __21__ VGND VNB VPB VPWR comp_prev.1 sky130_fd_sc_hd__dfxtp_1
x__13__ clk __22__ VGND VNB VPB VPWR comp_prev.2 sky130_fd_sc_hd__dfxtp_1
x__14__ clk __23__ VGND VNB VPB VPWR comp_prev.3 sky130_fd_sc_hd__dfxtp_1

* Tieoffs

.ends

