* edge_detector.spice
* File autogenerated by json2spice.py

* Subcircuit Definition
.subckt edge_detector8 clk reset comp.35 comp.36 comp.37 comp.38 comp.39 enable.35 enable.36 enable.37 enable.38 enable.39 VGND VNB VPB VPWR

* Standard Cells
x__0__ comp.35 comp_prev.0 VGND VNB VPB VPWR enable.35 sky130_fd_sc_hd__lpflow_isobufsrc_1
x__1__ comp.36 comp_prev.1 VGND VNB VPB VPWR enable.36 sky130_fd_sc_hd__lpflow_isobufsrc_1
x__2__ comp.37 comp_prev.2 VGND VNB VPB VPWR enable.37 sky130_fd_sc_hd__lpflow_isobufsrc_1
x__3__ comp.38 comp_prev.3 VGND VNB VPB VPWR enable.38 sky130_fd_sc_hd__lpflow_isobufsrc_1
x__4__ comp.39 comp_prev.4 VGND VNB VPB VPWR enable.39 sky130_fd_sc_hd__lpflow_isobufsrc_1
x__5__ comp.39 reset VGND VNB VPB VPWR __19__ sky130_fd_sc_hd__lpflow_isobufsrc_1
x__6__ comp.35 reset VGND VNB VPB VPWR __20__ sky130_fd_sc_hd__lpflow_isobufsrc_1
x__7__ comp.36 reset VGND VNB VPB VPWR __21__ sky130_fd_sc_hd__lpflow_isobufsrc_1
x__8__ comp.37 reset VGND VNB VPB VPWR __22__ sky130_fd_sc_hd__lpflow_isobufsrc_1
x__9__ comp.38 reset VGND VNB VPB VPWR __23__ sky130_fd_sc_hd__lpflow_isobufsrc_1
x__10__ clk __19__ VGND VNB VPB VPWR comp_prev.4 sky130_fd_sc_hd__dfxtp_1
x__11__ clk __20__ VGND VNB VPB VPWR comp_prev.0 sky130_fd_sc_hd__dfxtp_1
x__12__ clk __21__ VGND VNB VPB VPWR comp_prev.1 sky130_fd_sc_hd__dfxtp_1
x__13__ clk __22__ VGND VNB VPB VPWR comp_prev.2 sky130_fd_sc_hd__dfxtp_1
x__14__ clk __23__ VGND VNB VPB VPWR comp_prev.3 sky130_fd_sc_hd__dfxtp_1

* Tieoffs

.ends

