* edge_detector.spice
* File autogenerated by json2spice.py

* Subcircuit Definition
.subckt edge_detector6 clk reset comp.25 comp.26 comp.27 comp.28 comp.29 enable.25 enable.26 enable.27 enable.28 enable.29 VGND VNB VPB VPWR

* Standard Cells
x__0__ comp.25 comp_prev.0 VGND VNB VPB VPWR enable.25 sky130_fd_sc_hd__lpflow_isobufsrc_1
x__1__ comp.26 comp_prev.1 VGND VNB VPB VPWR enable.26 sky130_fd_sc_hd__lpflow_isobufsrc_1
x__2__ comp.27 comp_prev.2 VGND VNB VPB VPWR enable.27 sky130_fd_sc_hd__lpflow_isobufsrc_1
x__3__ comp.28 comp_prev.3 VGND VNB VPB VPWR enable.28 sky130_fd_sc_hd__lpflow_isobufsrc_1
x__4__ comp.29 comp_prev.4 VGND VNB VPB VPWR enable.29 sky130_fd_sc_hd__lpflow_isobufsrc_1
x__5__ comp.29 reset VGND VNB VPB VPWR __19__ sky130_fd_sc_hd__lpflow_isobufsrc_1
x__6__ comp.25 reset VGND VNB VPB VPWR __20__ sky130_fd_sc_hd__lpflow_isobufsrc_1
x__7__ comp.26 reset VGND VNB VPB VPWR __21__ sky130_fd_sc_hd__lpflow_isobufsrc_1
x__8__ comp.27 reset VGND VNB VPB VPWR __22__ sky130_fd_sc_hd__lpflow_isobufsrc_1
x__9__ comp.28 reset VGND VNB VPB VPWR __23__ sky130_fd_sc_hd__lpflow_isobufsrc_1
x__10__ clk __19__ VGND VNB VPB VPWR comp_prev.4 sky130_fd_sc_hd__dfxtp_1
x__11__ clk __20__ VGND VNB VPB VPWR comp_prev.0 sky130_fd_sc_hd__dfxtp_1
x__12__ clk __21__ VGND VNB VPB VPWR comp_prev.1 sky130_fd_sc_hd__dfxtp_1
x__13__ clk __22__ VGND VNB VPB VPWR comp_prev.2 sky130_fd_sc_hd__dfxtp_1
x__14__ clk __23__ VGND VNB VPB VPWR comp_prev.3 sky130_fd_sc_hd__dfxtp_1

* Tieoffs

.ends

