* edge_detector.spice
* File autogenerated by json2spice.py

* Standard Cell Includes
.include /foss/pdk/sky130A/libs.ref/sky130_fd_sc_hd/spice/sky130_fd_sc_hd.spice
.include /foss/pdk/sky130A/libs.ref/sky130_fd_sc_hd/spice/sky130_fd_sc_hd.spice

* Subcircuit Definition
.subckt edge_detector clk reset comp.0 comp.1 comp.2 comp.3 comp.4 enable.0 enable.1 enable.2 enable.3 enable.4 VGND VNB VPB VPWR

* Standard Cells
x__0__ comp.0 comp_prev.0 VGND VNB VPB VPWR enable.0 sky130_fd_sc_hd__lpflow_isobufsrc_1
x__1__ comp.1 comp_prev.1 VGND VNB VPB VPWR enable.1 sky130_fd_sc_hd__lpflow_isobufsrc_1
x__2__ comp.2 comp_prev.2 VGND VNB VPB VPWR enable.2 sky130_fd_sc_hd__lpflow_isobufsrc_1
x__3__ comp.3 comp_prev.3 VGND VNB VPB VPWR enable.3 sky130_fd_sc_hd__lpflow_isobufsrc_1
x__4__ comp.4 comp_prev.4 VGND VNB VPB VPWR enable.4 sky130_fd_sc_hd__lpflow_isobufsrc_1
x__5__ comp.4 reset VGND VNB VPB VPWR __19__ sky130_fd_sc_hd__lpflow_isobufsrc_1
x__6__ comp.0 reset VGND VNB VPB VPWR __20__ sky130_fd_sc_hd__lpflow_isobufsrc_1
x__7__ comp.1 reset VGND VNB VPB VPWR __21__ sky130_fd_sc_hd__lpflow_isobufsrc_1
x__8__ comp.2 reset VGND VNB VPB VPWR __22__ sky130_fd_sc_hd__lpflow_isobufsrc_1
x__9__ comp.3 reset VGND VNB VPB VPWR __23__ sky130_fd_sc_hd__lpflow_isobufsrc_1
x__10__ clk __19__ VGND VNB VPB VPWR comp_prev.4 sky130_fd_sc_hd__dfxtp_1
x__11__ clk __20__ VGND VNB VPB VPWR comp_prev.0 sky130_fd_sc_hd__dfxtp_1
x__12__ clk __21__ VGND VNB VPB VPWR comp_prev.1 sky130_fd_sc_hd__dfxtp_1
x__13__ clk __22__ VGND VNB VPB VPWR comp_prev.2 sky130_fd_sc_hd__dfxtp_1
x__14__ clk __23__ VGND VNB VPB VPWR comp_prev.3 sky130_fd_sc_hd__dfxtp_1

* Tieoffs

.ends

