* single_row_adc.spice
* File autogenerated by json2spice.py

* Subcircuit Definition
.subckt single_row_adc clk reset comp.0 comp.1 comp.2 comp.3 comp.4 stored_values.0 stored_values.1 stored_values.2 stored_values.3 stored_values.4 stored_values.5 stored_values.6 stored_values.7 stored_values.8 stored_values.9 stored_values.10 stored_values.11 stored_values.12 stored_values.13 stored_values.14 stored_values.15 stored_values.16 stored_values.17 stored_values.18 stored_values.19 stored_values.20 stored_values.21 stored_values.22 stored_values.23 stored_values.24 stored_values.25 stored_values.26 stored_values.27 stored_values.28 stored_values.29 stored_values.30 stored_values.31 stored_values.32 stored_values.33 stored_values.34 stored_values.35 stored_values.36 stored_values.37 stored_values.38 stored_values.39 VGND VNB VPB VPWR

* Standard Cells
x__0__ counter.0 VGND VNB VPB VPWR __50__ sky130_fd_sc_hd__clkinv_1
x__1__ reset VGND VNB VPB VPWR __51__ sky130_fd_sc_hd__clkinv_1
x__2__ comp.0 comp_prev.0 VGND VNB VPB VPWR __53__ sky130_fd_sc_hd__lpflow_isobufsrc_1
x__3__ stored_values.7 counter.7 __53__ VGND VNB VPB VPWR __55__ sky130_fd_sc_hd__mux2_1
x__4__ stored_values.6 counter.6 __53__ VGND VNB VPB VPWR __57__ sky130_fd_sc_hd__mux2_1
x__5__ stored_values.5 counter.5 __53__ VGND VNB VPB VPWR __59__ sky130_fd_sc_hd__mux2_1
x__6__ stored_values.4 counter.4 __53__ VGND VNB VPB VPWR __61__ sky130_fd_sc_hd__mux2_1
x__7__ stored_values.3 counter.3 __53__ VGND VNB VPB VPWR __63__ sky130_fd_sc_hd__mux2_1
x__8__ stored_values.2 counter.2 __53__ VGND VNB VPB VPWR __65__ sky130_fd_sc_hd__mux2_1
x__9__ stored_values.1 counter.1 __53__ VGND VNB VPB VPWR __67__ sky130_fd_sc_hd__mux2_1
x__10__ stored_values.0 __53__ VGND VNB VPB VPWR __68__ sky130_fd_sc_hd__nor2_1
x__11__ __50__ __53__ __68__ VGND VNB VPB VPWR __69__ sky130_fd_sc_hd__a21oi_1
x__12__ comp_prev.1 comp.1 VGND VNB VPB VPWR __71__ sky130_fd_sc_hd__nand2b_1
x__13__ counter.7 stored_values.15 __71__ VGND VNB VPB VPWR __72__ sky130_fd_sc_hd__mux2_1
x__14__ counter.6 stored_values.14 __71__ VGND VNB VPB VPWR __73__ sky130_fd_sc_hd__mux2_1
x__15__ counter.5 stored_values.13 __71__ VGND VNB VPB VPWR __74__ sky130_fd_sc_hd__mux2_1
x__16__ counter.4 stored_values.12 __71__ VGND VNB VPB VPWR __75__ sky130_fd_sc_hd__mux2_1
x__17__ counter.3 stored_values.11 __71__ VGND VNB VPB VPWR __76__ sky130_fd_sc_hd__mux2_1
x__18__ counter.2 stored_values.10 __71__ VGND VNB VPB VPWR __77__ sky130_fd_sc_hd__mux2_1
x__19__ counter.1 stored_values.9 __71__ VGND VNB VPB VPWR __78__ sky130_fd_sc_hd__mux2_1
x__20__ stored_values.8 __71__ VGND VNB VPB VPWR __79__ sky130_fd_sc_hd__nand2_1
x__21__ __50__ __71__ __79__ VGND VNB VPB VPWR __80__ sky130_fd_sc_hd__o21ai_0
x__22__ comp_prev.2 comp.2 VGND VNB VPB VPWR __82__ sky130_fd_sc_hd__nand2b_1
x__23__ counter.7 stored_values.23 __82__ VGND VNB VPB VPWR __83__ sky130_fd_sc_hd__mux2_1
x__24__ counter.6 stored_values.22 __82__ VGND VNB VPB VPWR __84__ sky130_fd_sc_hd__mux2_1
x__25__ counter.5 stored_values.21 __82__ VGND VNB VPB VPWR __85__ sky130_fd_sc_hd__mux2_1
x__26__ counter.4 stored_values.20 __82__ VGND VNB VPB VPWR __86__ sky130_fd_sc_hd__mux2_1
x__27__ counter.3 stored_values.19 __82__ VGND VNB VPB VPWR __87__ sky130_fd_sc_hd__mux2_1
x__28__ counter.2 stored_values.18 __82__ VGND VNB VPB VPWR __88__ sky130_fd_sc_hd__mux2_1
x__29__ counter.1 stored_values.17 __82__ VGND VNB VPB VPWR __89__ sky130_fd_sc_hd__mux2_1
x__30__ stored_values.16 __82__ VGND VNB VPB VPWR __90__ sky130_fd_sc_hd__nand2_1
x__31__ __50__ __82__ __90__ VGND VNB VPB VPWR __91__ sky130_fd_sc_hd__o21ai_0
x__32__ comp_prev.3 comp.3 VGND VNB VPB VPWR __93__ sky130_fd_sc_hd__nand2b_1
x__33__ counter.7 stored_values.31 __93__ VGND VNB VPB VPWR __94__ sky130_fd_sc_hd__mux2_1
x__34__ counter.6 stored_values.30 __93__ VGND VNB VPB VPWR __95__ sky130_fd_sc_hd__mux2_1
x__35__ counter.5 stored_values.29 __93__ VGND VNB VPB VPWR __96__ sky130_fd_sc_hd__mux2_1
x__36__ counter.4 stored_values.28 __93__ VGND VNB VPB VPWR __97__ sky130_fd_sc_hd__mux2_1
x__37__ counter.3 stored_values.27 __93__ VGND VNB VPB VPWR __98__ sky130_fd_sc_hd__mux2_1
x__38__ counter.2 stored_values.26 __93__ VGND VNB VPB VPWR __99__ sky130_fd_sc_hd__mux2_1
x__39__ counter.1 stored_values.25 __93__ VGND VNB VPB VPWR __100__ sky130_fd_sc_hd__mux2_1
x__40__ stored_values.24 __93__ VGND VNB VPB VPWR __101__ sky130_fd_sc_hd__nand2_1
x__41__ __50__ __93__ __101__ VGND VNB VPB VPWR __102__ sky130_fd_sc_hd__o21ai_0
x__42__ comp_prev.4 comp.4 VGND VNB VPB VPWR __104__ sky130_fd_sc_hd__nand2b_1
x__43__ counter.7 stored_values.39 __104__ VGND VNB VPB VPWR __105__ sky130_fd_sc_hd__mux2_1
x__44__ counter.6 stored_values.38 __104__ VGND VNB VPB VPWR __106__ sky130_fd_sc_hd__mux2_1
x__45__ counter.5 stored_values.37 __104__ VGND VNB VPB VPWR __107__ sky130_fd_sc_hd__mux2_1
x__46__ counter.4 stored_values.36 __104__ VGND VNB VPB VPWR __108__ sky130_fd_sc_hd__mux2_1
x__47__ counter.3 stored_values.35 __104__ VGND VNB VPB VPWR __109__ sky130_fd_sc_hd__mux2_1
x__48__ counter.2 stored_values.34 __104__ VGND VNB VPB VPWR __110__ sky130_fd_sc_hd__mux2_1
x__49__ counter.1 stored_values.33 __104__ VGND VNB VPB VPWR __111__ sky130_fd_sc_hd__mux2_1
x__50__ stored_values.32 __104__ VGND VNB VPB VPWR __112__ sky130_fd_sc_hd__nand2_1
x__51__ __50__ __104__ __112__ VGND VNB VPB VPWR __113__ sky130_fd_sc_hd__o21ai_0
x__52__ counter.1 counter.0 VGND VNB VPB VPWR __114__ sky130_fd_sc_hd__nand2_1
x__53__ counter.1 counter.0 VGND VNB VPB VPWR __115__ sky130_fd_sc_hd__xor2_1
x__54__ counter.2 __114__ VGND VNB VPB VPWR __116__ sky130_fd_sc_hd__xnor2_1
x__55__ counter.3 counter.2 counter.1 counter.0 VGND VNB VPB VPWR __117__ sky130_fd_sc_hd__and4_1
x__56__ counter.2 counter.1 counter.0 counter.3 VGND VNB VPB VPWR __118__ sky130_fd_sc_hd__a31oi_1
x__57__ __117__ __118__ VGND VNB VPB VPWR __119__ sky130_fd_sc_hd__nor2_1
x__58__ counter.4 __117__ VGND VNB VPB VPWR __120__ sky130_fd_sc_hd__nand2_1
x__59__ counter.4 __117__ VGND VNB VPB VPWR __121__ sky130_fd_sc_hd__xor2_1
x__60__ counter.5 __120__ VGND VNB VPB VPWR __122__ sky130_fd_sc_hd__xnor2_1
x__61__ counter.6 counter.5 counter.4 __117__ VGND VNB VPB VPWR __123__ sky130_fd_sc_hd__nand4_1
x__62__ counter.5 counter.4 __117__ counter.6 VGND VNB VPB VPWR __124__ sky130_fd_sc_hd__a31oi_1
x__63__ __123__ __124__ VGND VNB VPB VPWR __125__ sky130_fd_sc_hd__lpflow_isobufsrc_1
x__64__ counter.7 __123__ VGND VNB VPB VPWR __126__ sky130_fd_sc_hd__xnor2_1
x__65__ reset VGND VNB VPB VPWR __127__ sky130_fd_sc_hd__clkinv_1
x__66__ reset VGND VNB VPB VPWR __128__ sky130_fd_sc_hd__clkinv_1
x__67__ reset VGND VNB VPB VPWR __129__ sky130_fd_sc_hd__clkinv_1
x__68__ reset VGND VNB VPB VPWR __130__ sky130_fd_sc_hd__clkinv_1
x__69__ reset VGND VNB VPB VPWR __131__ sky130_fd_sc_hd__clkinv_1
x__70__ reset VGND VNB VPB VPWR __132__ sky130_fd_sc_hd__clkinv_1
x__71__ reset VGND VNB VPB VPWR __133__ sky130_fd_sc_hd__clkinv_1
x__72__ reset VGND VNB VPB VPWR __134__ sky130_fd_sc_hd__clkinv_1
x__73__ reset VGND VNB VPB VPWR __135__ sky130_fd_sc_hd__clkinv_1
x__74__ reset VGND VNB VPB VPWR __136__ sky130_fd_sc_hd__clkinv_1
x__75__ reset VGND VNB VPB VPWR __137__ sky130_fd_sc_hd__clkinv_1
x__76__ reset VGND VNB VPB VPWR __138__ sky130_fd_sc_hd__clkinv_1
x__77__ reset VGND VNB VPB VPWR __139__ sky130_fd_sc_hd__clkinv_1
x__78__ reset VGND VNB VPB VPWR __140__ sky130_fd_sc_hd__clkinv_1
x__79__ reset VGND VNB VPB VPWR __141__ sky130_fd_sc_hd__clkinv_1
x__80__ reset VGND VNB VPB VPWR __142__ sky130_fd_sc_hd__clkinv_1
x__81__ reset VGND VNB VPB VPWR __143__ sky130_fd_sc_hd__clkinv_1
x__82__ reset VGND VNB VPB VPWR __144__ sky130_fd_sc_hd__clkinv_1
x__83__ reset VGND VNB VPB VPWR __145__ sky130_fd_sc_hd__clkinv_1
x__84__ reset VGND VNB VPB VPWR __146__ sky130_fd_sc_hd__clkinv_1
x__85__ reset VGND VNB VPB VPWR __147__ sky130_fd_sc_hd__clkinv_1
x__86__ reset VGND VNB VPB VPWR __148__ sky130_fd_sc_hd__clkinv_1
x__87__ reset VGND VNB VPB VPWR __149__ sky130_fd_sc_hd__clkinv_1
x__88__ reset VGND VNB VPB VPWR __150__ sky130_fd_sc_hd__clkinv_1
x__89__ reset VGND VNB VPB VPWR __151__ sky130_fd_sc_hd__clkinv_1
x__90__ reset VGND VNB VPB VPWR __152__ sky130_fd_sc_hd__clkinv_1
x__91__ reset VGND VNB VPB VPWR __153__ sky130_fd_sc_hd__clkinv_1
x__92__ reset VGND VNB VPB VPWR __154__ sky130_fd_sc_hd__clkinv_1
x__93__ reset VGND VNB VPB VPWR __155__ sky130_fd_sc_hd__clkinv_1
x__94__ reset VGND VNB VPB VPWR __156__ sky130_fd_sc_hd__clkinv_1
x__95__ reset VGND VNB VPB VPWR __157__ sky130_fd_sc_hd__clkinv_1
x__96__ reset VGND VNB VPB VPWR __158__ sky130_fd_sc_hd__clkinv_1
x__97__ reset VGND VNB VPB VPWR __159__ sky130_fd_sc_hd__clkinv_1
x__98__ reset VGND VNB VPB VPWR __160__ sky130_fd_sc_hd__clkinv_1
x__99__ reset VGND VNB VPB VPWR __161__ sky130_fd_sc_hd__clkinv_1
x__100__ reset VGND VNB VPB VPWR __162__ sky130_fd_sc_hd__clkinv_1
x__101__ reset VGND VNB VPB VPWR __163__ sky130_fd_sc_hd__clkinv_1
x__102__ reset VGND VNB VPB VPWR __164__ sky130_fd_sc_hd__clkinv_1
x__103__ reset VGND VNB VPB VPWR __165__ sky130_fd_sc_hd__clkinv_1
x__104__ reset VGND VNB VPB VPWR __166__ sky130_fd_sc_hd__clkinv_1
x__105__ reset VGND VNB VPB VPWR __167__ sky130_fd_sc_hd__clkinv_1
x__106__ reset VGND VNB VPB VPWR __168__ sky130_fd_sc_hd__clkinv_1
x__107__ reset VGND VNB VPB VPWR __169__ sky130_fd_sc_hd__clkinv_1
x__108__ reset VGND VNB VPB VPWR __170__ sky130_fd_sc_hd__clkinv_1
x__109__ reset VGND VNB VPB VPWR __171__ sky130_fd_sc_hd__clkinv_1
x__110__ reset VGND VNB VPB VPWR __172__ sky130_fd_sc_hd__clkinv_1
x__111__ reset VGND VNB VPB VPWR __173__ sky130_fd_sc_hd__clkinv_1
x__112__ reset VGND VNB VPB VPWR __174__ sky130_fd_sc_hd__clkinv_1
x__113__ reset VGND VNB VPB VPWR __175__ sky130_fd_sc_hd__clkinv_1
x__114__ reset VGND VNB VPB VPWR __176__ sky130_fd_sc_hd__clkinv_1
x__115__ reset VGND VNB VPB VPWR __177__ sky130_fd_sc_hd__clkinv_1
x__116__ reset VGND VNB VPB VPWR __178__ sky130_fd_sc_hd__clkinv_1
x__117__ clk __113__ __51__ VGND VNB VPB VPWR stored_values.32 sky130_fd_sc_hd__dfrtp_1
x__118__ clk __111__ __127__ VGND VNB VPB VPWR stored_values.33 sky130_fd_sc_hd__dfrtp_1
x__119__ clk __110__ __128__ VGND VNB VPB VPWR stored_values.34 sky130_fd_sc_hd__dfrtp_1
x__120__ clk __109__ __129__ VGND VNB VPB VPWR stored_values.35 sky130_fd_sc_hd__dfrtp_1
x__121__ clk __108__ __130__ VGND VNB VPB VPWR stored_values.36 sky130_fd_sc_hd__dfrtp_1
x__122__ clk __107__ __131__ VGND VNB VPB VPWR stored_values.37 sky130_fd_sc_hd__dfrtp_1
x__123__ clk __106__ __132__ VGND VNB VPB VPWR stored_values.38 sky130_fd_sc_hd__dfrtp_1
x__124__ clk __105__ __133__ VGND VNB VPB VPWR stored_values.39 sky130_fd_sc_hd__dfrtp_1
x__125__ clk comp.0 __134__ VGND VNB VPB VPWR comp_prev.0 sky130_fd_sc_hd__dfrtp_1
x__126__ clk comp.1 __135__ VGND VNB VPB VPWR comp_prev.1 sky130_fd_sc_hd__dfrtp_1
x__127__ clk comp.2 __136__ VGND VNB VPB VPWR comp_prev.2 sky130_fd_sc_hd__dfrtp_1
x__128__ clk comp.3 __137__ VGND VNB VPB VPWR comp_prev.3 sky130_fd_sc_hd__dfrtp_1
x__129__ clk comp.4 __138__ VGND VNB VPB VPWR comp_prev.4 sky130_fd_sc_hd__dfrtp_1
x__130__ clk __102__ __139__ VGND VNB VPB VPWR stored_values.24 sky130_fd_sc_hd__dfrtp_1
x__131__ clk __100__ __140__ VGND VNB VPB VPWR stored_values.25 sky130_fd_sc_hd__dfrtp_1
x__132__ clk __99__ __141__ VGND VNB VPB VPWR stored_values.26 sky130_fd_sc_hd__dfrtp_1
x__133__ clk __98__ __142__ VGND VNB VPB VPWR stored_values.27 sky130_fd_sc_hd__dfrtp_1
x__134__ clk __97__ __143__ VGND VNB VPB VPWR stored_values.28 sky130_fd_sc_hd__dfrtp_1
x__135__ clk __96__ __144__ VGND VNB VPB VPWR stored_values.29 sky130_fd_sc_hd__dfrtp_1
x__136__ clk __95__ __145__ VGND VNB VPB VPWR stored_values.30 sky130_fd_sc_hd__dfrtp_1
x__137__ clk __94__ __146__ VGND VNB VPB VPWR stored_values.31 sky130_fd_sc_hd__dfrtp_1
x__138__ clk __91__ __147__ VGND VNB VPB VPWR stored_values.16 sky130_fd_sc_hd__dfrtp_1
x__139__ clk __89__ __148__ VGND VNB VPB VPWR stored_values.17 sky130_fd_sc_hd__dfrtp_1
x__140__ clk __88__ __149__ VGND VNB VPB VPWR stored_values.18 sky130_fd_sc_hd__dfrtp_1
x__141__ clk __87__ __150__ VGND VNB VPB VPWR stored_values.19 sky130_fd_sc_hd__dfrtp_1
x__142__ clk __86__ __151__ VGND VNB VPB VPWR stored_values.20 sky130_fd_sc_hd__dfrtp_1
x__143__ clk __85__ __152__ VGND VNB VPB VPWR stored_values.21 sky130_fd_sc_hd__dfrtp_1
x__144__ clk __84__ __153__ VGND VNB VPB VPWR stored_values.22 sky130_fd_sc_hd__dfrtp_1
x__145__ clk __83__ __154__ VGND VNB VPB VPWR stored_values.23 sky130_fd_sc_hd__dfrtp_1
x__146__ clk __80__ __155__ VGND VNB VPB VPWR stored_values.8 sky130_fd_sc_hd__dfrtp_1
x__147__ clk __78__ __156__ VGND VNB VPB VPWR stored_values.9 sky130_fd_sc_hd__dfrtp_1
x__148__ clk __77__ __157__ VGND VNB VPB VPWR stored_values.10 sky130_fd_sc_hd__dfrtp_1
x__149__ clk __76__ __158__ VGND VNB VPB VPWR stored_values.11 sky130_fd_sc_hd__dfrtp_1
x__150__ clk __75__ __159__ VGND VNB VPB VPWR stored_values.12 sky130_fd_sc_hd__dfrtp_1
x__151__ clk __74__ __160__ VGND VNB VPB VPWR stored_values.13 sky130_fd_sc_hd__dfrtp_1
x__152__ clk __73__ __161__ VGND VNB VPB VPWR stored_values.14 sky130_fd_sc_hd__dfrtp_1
x__153__ clk __72__ __162__ VGND VNB VPB VPWR stored_values.15 sky130_fd_sc_hd__dfrtp_1
x__154__ clk __69__ __163__ VGND VNB VPB VPWR stored_values.0 sky130_fd_sc_hd__dfrtp_1
x__155__ clk __67__ __164__ VGND VNB VPB VPWR stored_values.1 sky130_fd_sc_hd__dfrtp_1
x__156__ clk __65__ __165__ VGND VNB VPB VPWR stored_values.2 sky130_fd_sc_hd__dfrtp_1
x__157__ clk __63__ __166__ VGND VNB VPB VPWR stored_values.3 sky130_fd_sc_hd__dfrtp_1
x__158__ clk __61__ __167__ VGND VNB VPB VPWR stored_values.4 sky130_fd_sc_hd__dfrtp_1
x__159__ clk __59__ __168__ VGND VNB VPB VPWR stored_values.5 sky130_fd_sc_hd__dfrtp_1
x__160__ clk __57__ __169__ VGND VNB VPB VPWR stored_values.6 sky130_fd_sc_hd__dfrtp_1
x__161__ clk __55__ __170__ VGND VNB VPB VPWR stored_values.7 sky130_fd_sc_hd__dfrtp_1
x__162__ clk __50__ __171__ VGND VNB VPB VPWR counter.0 sky130_fd_sc_hd__dfrtp_1
x__163__ clk __115__ __172__ VGND VNB VPB VPWR counter.1 sky130_fd_sc_hd__dfrtp_1
x__164__ clk __116__ __173__ VGND VNB VPB VPWR counter.2 sky130_fd_sc_hd__dfrtp_1
x__165__ clk __119__ __174__ VGND VNB VPB VPWR counter.3 sky130_fd_sc_hd__dfrtp_1
x__166__ clk __121__ __175__ VGND VNB VPB VPWR counter.4 sky130_fd_sc_hd__dfrtp_1
x__167__ clk __122__ __176__ VGND VNB VPB VPWR counter.5 sky130_fd_sc_hd__dfrtp_1
x__168__ clk __125__ __177__ VGND VNB VPB VPWR counter.6 sky130_fd_sc_hd__dfrtp_1
x__169__ clk __126__ __178__ VGND VNB VPB VPWR counter.7 sky130_fd_sc_hd__dfrtp_1

* Tieoffs

.ends

