* edge_detector.spice
* File autogenerated by json2spice.py

* Standard Cell Includes
.include /foss/pdk/sky130A/libs.ref/sky130_fd_sc_hd/spice/sky130_fd_sc_hd.spice
.include /foss/pdk/sky130A/libs.ref/sky130_fd_sc_hd/spice/sky130_fd_sc_hd.spice

* Subcircuit Definition
.subckt edge_detector clk reset comp enable VGND VNB VPB VPWR

* Standard Cells
x__0__ comp comp_prev VGND VNB VPB VPWR enable sky130_fd_sc_hd__lpflow_isobufsrc_1
x__1__ comp reset VGND VNB VPB VPWR __7__ sky130_fd_sc_hd__lpflow_isobufsrc_1
x__2__ clk __7__ VGND VNB VPB VPWR comp_prev sky130_fd_sc_hd__dfxtp_1

* Tieoffs

.ends

