* negedge_detector.spice
* File autogenerated by json2spice.py

* Standard Cell Includes
.include /foss/pdk/sky130A/libs.ref/sky130_fd_sc_hd/spice/sky130_fd_sc_hd.spice
.include /foss/pdk/sky130A/libs.ref/sky130_fd_sc_hd/spice/sky130_fd_sc_hd.spice
.include /foss/pdk/sky130A/libs.ref/sky130_fd_sc_hd/spice/sky130_fd_sc_hd.spice
.include /foss/pdk/sky130A/libs.ref/sky130_fd_sc_hd/spice/sky130_fd_sc_hd.spice

* Subcircuit Definition
.subckt negedge_detector clk reset comp enable VGND VNB VPB VPWR

* Standard Cells
x__0__ clk VGND VNB VPB VPWR __6__ sky130_fd_sc_hd__clkinv_1
x__1__ comp reset VGND VNB VPB VPWR __7__ sky130_fd_sc_hd__lpflow_isobufsrc_1
x__2__ sample_hold sample_hold_registered VGND VNB VPB VPWR enable sky130_fd_sc_hd__lpflow_isobufsrc_1
x__3__ sample_hold reset VGND VNB VPB VPWR __10__ sky130_fd_sc_hd__lpflow_isobufsrc_1
x__4__ sample_hold negedge_sample reset VGND VNB VPB VPWR __12__ sky130_fd_sc_hd__o21ba_1
x__5__ __6__ __7__ VGND VNB VPB VPWR negedge_sample sky130_fd_sc_hd__dfxtp_1
x__6__ clk __12__ VGND VNB VPB VPWR sample_hold sky130_fd_sc_hd__dfxtp_1
x__7__ clk __10__ VGND VNB VPB VPWR sample_hold_registered sky130_fd_sc_hd__dfxtp_1

* Tieoffs

.ends

