* dff.spice
* File autogenerated by json2spice.py

* Standard Cell Includes
.include /foss/pdk/sky130A/libs.ref/sky130_fd_sc_hd/spice/sky130_fd_sc_hd.spice
.include /foss/pdk/sky130A/libs.ref/sky130_fd_sc_hd/spice/sky130_fd_sc_hd.spice

* Subcircuit Definition
.subckt dff clk rst d q VGND VNB VPB VPWR

* Standard Cells
x__0__ d rst VGND VNB VPB VPWR __6__ sky130_fd_sc_hd__lpflow_isobufsrc_1
x__1__ clk __6__ VGND VNB VPB VPWR q sky130_fd_sc_hd__dfxtp_1

* Tieoffs

.ends

