* SPICE netlist generated by Yosys 0.47+56 (git sha1 bbb6bbd12, clang++ 13.0.1 -fPIC -O3)

.SUBCKT dff_synth clk rst d q

VVDD vdd 0 DC 1.2
VVSS vss 0 DC 0

X0 d 1 vss vss vdd vdd rst sky130_fd_sc_hd__lpflow_isobufsrc_1
X1 clk 1 vss vss vdd vdd q sky130_fd_sc_hd__dfxtp_1

.ends

************************
* end of SPICE netlist *
************************

