* single_row_adc.spice
* File autogenerated by json2spice.py

* Standard Cell Includes
.include /foss/pdk/sky130A/libs.ref/sky130_fd_sc_hd/spice/sky130_fd_sc_hd.spice
.include /foss/pdk/sky130A/libs.ref/sky130_fd_sc_hd/spice/sky130_fd_sc_hd.spice
.include /foss/pdk/sky130A/libs.ref/sky130_fd_sc_hd/spice/sky130_fd_sc_hd.spice
.include /foss/pdk/sky130A/libs.ref/sky130_fd_sc_hd/spice/sky130_fd_sc_hd.spice
.include /foss/pdk/sky130A/libs.ref/sky130_fd_sc_hd/spice/sky130_fd_sc_hd.spice
.include /foss/pdk/sky130A/libs.ref/sky130_fd_sc_hd/spice/sky130_fd_sc_hd.spice
.include /foss/pdk/sky130A/libs.ref/sky130_fd_sc_hd/spice/sky130_fd_sc_hd.spice
.include /foss/pdk/sky130A/libs.ref/sky130_fd_sc_hd/spice/sky130_fd_sc_hd.spice
.include /foss/pdk/sky130A/libs.ref/sky130_fd_sc_hd/spice/sky130_fd_sc_hd.spice
.include /foss/pdk/sky130A/libs.ref/sky130_fd_sc_hd/spice/sky130_fd_sc_hd.spice
.include /foss/pdk/sky130A/libs.ref/sky130_fd_sc_hd/spice/sky130_fd_sc_hd.spice
.include /foss/pdk/sky130A/libs.ref/sky130_fd_sc_hd/spice/sky130_fd_sc_hd.spice
.include /foss/pdk/sky130A/libs.ref/sky130_fd_sc_hd/spice/sky130_fd_sc_hd.spice
.include /foss/pdk/sky130A/libs.ref/sky130_fd_sc_hd/spice/sky130_fd_sc_hd.spice

* Subcircuit Definition
.subckt single_row_adc clk reset comp.0 comp.1 comp.2 comp.3 comp.4 comp.5 comp.6 comp.7 comp.8 comp.9 stored_values.0 stored_values.1 stored_values.2 stored_values.3 stored_values.4 stored_values.5 stored_values.6 stored_values.7 stored_values.8 stored_values.9 stored_values.10 stored_values.11 stored_values.12 stored_values.13 stored_values.14 stored_values.15 stored_values.16 stored_values.17 stored_values.18 stored_values.19 stored_values.20 stored_values.21 stored_values.22 stored_values.23 stored_values.24 stored_values.25 stored_values.26 stored_values.27 stored_values.28 stored_values.29 stored_values.30 stored_values.31 stored_values.32 stored_values.33 stored_values.34 stored_values.35 stored_values.36 stored_values.37 stored_values.38 stored_values.39 stored_values.40 stored_values.41 stored_values.42 stored_values.43 stored_values.44 stored_values.45 stored_values.46 stored_values.47 stored_values.48 stored_values.49 stored_values.50 stored_values.51 stored_values.52 stored_values.53 stored_values.54 stored_values.55 stored_values.56 stored_values.57 stored_values.58 stored_values.59 stored_values.60 stored_values.61 stored_values.62 stored_values.63 stored_values.64 stored_values.65 stored_values.66 stored_values.67 stored_values.68 stored_values.69 stored_values.70 stored_values.71 stored_values.72 stored_values.73 stored_values.74 stored_values.75 stored_values.76 stored_values.77 stored_values.78 stored_values.79 VGND VNB VPB VPWR

* Standard Cells
x0 counter.0 VGND VNB VPB VPWR __95__ sky130_fd_sc_hd__clkinv_1
x1 reset VGND VNB VPB VPWR __96__ sky130_fd_sc_hd__clkinv_1
x2 comp.0 comp_prev.0 VGND VNB VPB VPWR __98__ sky130_fd_sc_hd__lpflow_isobufsrc_1
x3 stored_values.7 counter.7 __98__ VGND VNB VPB VPWR __100__ sky130_fd_sc_hd__mux2_1
x4 stored_values.6 counter.6 __98__ VGND VNB VPB VPWR __102__ sky130_fd_sc_hd__mux2_1
x5 stored_values.5 counter.5 __98__ VGND VNB VPB VPWR __104__ sky130_fd_sc_hd__mux2_1
x6 stored_values.4 counter.4 __98__ VGND VNB VPB VPWR __106__ sky130_fd_sc_hd__mux2_1
x7 stored_values.3 counter.3 __98__ VGND VNB VPB VPWR __108__ sky130_fd_sc_hd__mux2_1
x8 stored_values.2 counter.2 __98__ VGND VNB VPB VPWR __110__ sky130_fd_sc_hd__mux2_1
x9 stored_values.1 counter.1 __98__ VGND VNB VPB VPWR __112__ sky130_fd_sc_hd__mux2_1
x10 stored_values.0 __98__ VGND VNB VPB VPWR __113__ sky130_fd_sc_hd__nor2_1
x11 __95__ __98__ __113__ VGND VNB VPB VPWR __114__ sky130_fd_sc_hd__a21oi_1
x12 comp_prev.1 comp.1 VGND VNB VPB VPWR __116__ sky130_fd_sc_hd__nand2b_1
x13 counter.7 stored_values.15 __116__ VGND VNB VPB VPWR __117__ sky130_fd_sc_hd__mux2_1
x14 counter.6 stored_values.14 __116__ VGND VNB VPB VPWR __118__ sky130_fd_sc_hd__mux2_1
x15 counter.5 stored_values.13 __116__ VGND VNB VPB VPWR __119__ sky130_fd_sc_hd__mux2_1
x16 counter.4 stored_values.12 __116__ VGND VNB VPB VPWR __120__ sky130_fd_sc_hd__mux2_1
x17 counter.3 stored_values.11 __116__ VGND VNB VPB VPWR __121__ sky130_fd_sc_hd__mux2_1
x18 counter.2 stored_values.10 __116__ VGND VNB VPB VPWR __122__ sky130_fd_sc_hd__mux2_1
x19 counter.1 stored_values.9 __116__ VGND VNB VPB VPWR __123__ sky130_fd_sc_hd__mux2_1
x20 stored_values.8 __116__ VGND VNB VPB VPWR __124__ sky130_fd_sc_hd__nand2_1
x21 __95__ __116__ __124__ VGND VNB VPB VPWR __125__ sky130_fd_sc_hd__o21ai_0
x22 comp_prev.2 comp.2 VGND VNB VPB VPWR __127__ sky130_fd_sc_hd__nand2b_1
x23 counter.7 stored_values.23 __127__ VGND VNB VPB VPWR __128__ sky130_fd_sc_hd__mux2_1
x24 counter.6 stored_values.22 __127__ VGND VNB VPB VPWR __129__ sky130_fd_sc_hd__mux2_1
x25 counter.5 stored_values.21 __127__ VGND VNB VPB VPWR __130__ sky130_fd_sc_hd__mux2_1
x26 counter.4 stored_values.20 __127__ VGND VNB VPB VPWR __131__ sky130_fd_sc_hd__mux2_1
x27 counter.3 stored_values.19 __127__ VGND VNB VPB VPWR __132__ sky130_fd_sc_hd__mux2_1
x28 counter.2 stored_values.18 __127__ VGND VNB VPB VPWR __133__ sky130_fd_sc_hd__mux2_1
x29 counter.1 stored_values.17 __127__ VGND VNB VPB VPWR __134__ sky130_fd_sc_hd__mux2_1
x30 stored_values.16 __127__ VGND VNB VPB VPWR __135__ sky130_fd_sc_hd__nand2_1
x31 __95__ __127__ __135__ VGND VNB VPB VPWR __136__ sky130_fd_sc_hd__o21ai_0
x32 comp_prev.3 comp.3 VGND VNB VPB VPWR __138__ sky130_fd_sc_hd__nand2b_1
x33 counter.7 stored_values.31 __138__ VGND VNB VPB VPWR __139__ sky130_fd_sc_hd__mux2_1
x34 counter.6 stored_values.30 __138__ VGND VNB VPB VPWR __140__ sky130_fd_sc_hd__mux2_1
x35 counter.5 stored_values.29 __138__ VGND VNB VPB VPWR __141__ sky130_fd_sc_hd__mux2_1
x36 counter.4 stored_values.28 __138__ VGND VNB VPB VPWR __142__ sky130_fd_sc_hd__mux2_1
x37 counter.3 stored_values.27 __138__ VGND VNB VPB VPWR __143__ sky130_fd_sc_hd__mux2_1
x38 counter.2 stored_values.26 __138__ VGND VNB VPB VPWR __144__ sky130_fd_sc_hd__mux2_1
x39 counter.1 stored_values.25 __138__ VGND VNB VPB VPWR __145__ sky130_fd_sc_hd__mux2_1
x40 stored_values.24 __138__ VGND VNB VPB VPWR __146__ sky130_fd_sc_hd__nand2_1
x41 __95__ __138__ __146__ VGND VNB VPB VPWR __147__ sky130_fd_sc_hd__o21ai_0
x42 comp_prev.4 comp.4 VGND VNB VPB VPWR __149__ sky130_fd_sc_hd__nand2b_1
x43 counter.7 stored_values.39 __149__ VGND VNB VPB VPWR __150__ sky130_fd_sc_hd__mux2_1
x44 counter.6 stored_values.38 __149__ VGND VNB VPB VPWR __151__ sky130_fd_sc_hd__mux2_1
x45 counter.5 stored_values.37 __149__ VGND VNB VPB VPWR __152__ sky130_fd_sc_hd__mux2_1
x46 counter.4 stored_values.36 __149__ VGND VNB VPB VPWR __153__ sky130_fd_sc_hd__mux2_1
x47 counter.3 stored_values.35 __149__ VGND VNB VPB VPWR __154__ sky130_fd_sc_hd__mux2_1
x48 counter.2 stored_values.34 __149__ VGND VNB VPB VPWR __155__ sky130_fd_sc_hd__mux2_1
x49 counter.1 stored_values.33 __149__ VGND VNB VPB VPWR __156__ sky130_fd_sc_hd__mux2_1
x50 stored_values.32 __149__ VGND VNB VPB VPWR __157__ sky130_fd_sc_hd__nand2_1
x51 __95__ __149__ __157__ VGND VNB VPB VPWR __158__ sky130_fd_sc_hd__o21ai_0
x52 comp_prev.5 comp.5 VGND VNB VPB VPWR __160__ sky130_fd_sc_hd__nand2b_1
x53 counter.7 stored_values.47 __160__ VGND VNB VPB VPWR __161__ sky130_fd_sc_hd__mux2_1
x54 counter.6 stored_values.46 __160__ VGND VNB VPB VPWR __162__ sky130_fd_sc_hd__mux2_1
x55 counter.5 stored_values.45 __160__ VGND VNB VPB VPWR __163__ sky130_fd_sc_hd__mux2_1
x56 counter.4 stored_values.44 __160__ VGND VNB VPB VPWR __164__ sky130_fd_sc_hd__mux2_1
x57 counter.3 stored_values.43 __160__ VGND VNB VPB VPWR __165__ sky130_fd_sc_hd__mux2_1
x58 counter.2 stored_values.42 __160__ VGND VNB VPB VPWR __166__ sky130_fd_sc_hd__mux2_1
x59 counter.1 stored_values.41 __160__ VGND VNB VPB VPWR __167__ sky130_fd_sc_hd__mux2_1
x60 stored_values.40 __160__ VGND VNB VPB VPWR __168__ sky130_fd_sc_hd__nand2_1
x61 __95__ __160__ __168__ VGND VNB VPB VPWR __169__ sky130_fd_sc_hd__o21ai_0
x62 comp_prev.6 comp.6 VGND VNB VPB VPWR __171__ sky130_fd_sc_hd__nand2b_1
x63 counter.7 stored_values.55 __171__ VGND VNB VPB VPWR __172__ sky130_fd_sc_hd__mux2_1
x64 counter.6 stored_values.54 __171__ VGND VNB VPB VPWR __173__ sky130_fd_sc_hd__mux2_1
x65 counter.5 stored_values.53 __171__ VGND VNB VPB VPWR __174__ sky130_fd_sc_hd__mux2_1
x66 counter.4 stored_values.52 __171__ VGND VNB VPB VPWR __175__ sky130_fd_sc_hd__mux2_1
x67 counter.3 stored_values.51 __171__ VGND VNB VPB VPWR __176__ sky130_fd_sc_hd__mux2_1
x68 counter.2 stored_values.50 __171__ VGND VNB VPB VPWR __177__ sky130_fd_sc_hd__mux2_1
x69 counter.1 stored_values.49 __171__ VGND VNB VPB VPWR __178__ sky130_fd_sc_hd__mux2_1
x70 stored_values.48 __171__ VGND VNB VPB VPWR __179__ sky130_fd_sc_hd__nand2_1
x71 __95__ __171__ __179__ VGND VNB VPB VPWR __180__ sky130_fd_sc_hd__o21ai_0
x72 comp_prev.7 comp.7 VGND VNB VPB VPWR __182__ sky130_fd_sc_hd__nand2b_1
x73 counter.7 stored_values.63 __182__ VGND VNB VPB VPWR __183__ sky130_fd_sc_hd__mux2_1
x74 counter.6 stored_values.62 __182__ VGND VNB VPB VPWR __184__ sky130_fd_sc_hd__mux2_1
x75 counter.5 stored_values.61 __182__ VGND VNB VPB VPWR __185__ sky130_fd_sc_hd__mux2_1
x76 counter.4 stored_values.60 __182__ VGND VNB VPB VPWR __186__ sky130_fd_sc_hd__mux2_1
x77 counter.3 stored_values.59 __182__ VGND VNB VPB VPWR __187__ sky130_fd_sc_hd__mux2_1
x78 counter.2 stored_values.58 __182__ VGND VNB VPB VPWR __188__ sky130_fd_sc_hd__mux2_1
x79 counter.1 stored_values.57 __182__ VGND VNB VPB VPWR __189__ sky130_fd_sc_hd__mux2_1
x80 stored_values.56 __182__ VGND VNB VPB VPWR __190__ sky130_fd_sc_hd__nand2_1
x81 __95__ __182__ __190__ VGND VNB VPB VPWR __191__ sky130_fd_sc_hd__o21ai_0
x82 comp_prev.8 comp.8 VGND VNB VPB VPWR __193__ sky130_fd_sc_hd__nand2b_1
x83 counter.7 stored_values.71 __193__ VGND VNB VPB VPWR __194__ sky130_fd_sc_hd__mux2_1
x84 counter.6 stored_values.70 __193__ VGND VNB VPB VPWR __195__ sky130_fd_sc_hd__mux2_1
x85 counter.5 stored_values.69 __193__ VGND VNB VPB VPWR __196__ sky130_fd_sc_hd__mux2_1
x86 counter.4 stored_values.68 __193__ VGND VNB VPB VPWR __197__ sky130_fd_sc_hd__mux2_1
x87 counter.3 stored_values.67 __193__ VGND VNB VPB VPWR __198__ sky130_fd_sc_hd__mux2_1
x88 counter.2 stored_values.66 __193__ VGND VNB VPB VPWR __199__ sky130_fd_sc_hd__mux2_1
x89 counter.1 stored_values.65 __193__ VGND VNB VPB VPWR __200__ sky130_fd_sc_hd__mux2_1
x90 stored_values.64 __193__ VGND VNB VPB VPWR __201__ sky130_fd_sc_hd__nand2_1
x91 __95__ __193__ __201__ VGND VNB VPB VPWR __202__ sky130_fd_sc_hd__o21ai_0
x92 comp_prev.9 comp.9 VGND VNB VPB VPWR __204__ sky130_fd_sc_hd__nand2b_1
x93 counter.7 stored_values.79 __204__ VGND VNB VPB VPWR __205__ sky130_fd_sc_hd__mux2_1
x94 counter.6 stored_values.78 __204__ VGND VNB VPB VPWR __206__ sky130_fd_sc_hd__mux2_1
x95 counter.5 stored_values.77 __204__ VGND VNB VPB VPWR __207__ sky130_fd_sc_hd__mux2_1
x96 counter.4 stored_values.76 __204__ VGND VNB VPB VPWR __208__ sky130_fd_sc_hd__mux2_1
x97 counter.3 stored_values.75 __204__ VGND VNB VPB VPWR __209__ sky130_fd_sc_hd__mux2_1
x98 counter.2 stored_values.74 __204__ VGND VNB VPB VPWR __210__ sky130_fd_sc_hd__mux2_1
x99 counter.1 stored_values.73 __204__ VGND VNB VPB VPWR __211__ sky130_fd_sc_hd__mux2_1
x100 stored_values.72 __204__ VGND VNB VPB VPWR __212__ sky130_fd_sc_hd__nand2_1
x101 __95__ __204__ __212__ VGND VNB VPB VPWR __213__ sky130_fd_sc_hd__o21ai_0
x102 counter.1 counter.0 VGND VNB VPB VPWR __214__ sky130_fd_sc_hd__nand2_1
x103 counter.1 counter.0 VGND VNB VPB VPWR __215__ sky130_fd_sc_hd__xor2_1
x104 counter.2 __214__ VGND VNB VPB VPWR __216__ sky130_fd_sc_hd__xnor2_1
x105 counter.3 counter.2 counter.1 counter.0 VGND VNB VPB VPWR __217__ sky130_fd_sc_hd__and4_1
x106 counter.2 counter.1 counter.0 counter.3 VGND VNB VPB VPWR __218__ sky130_fd_sc_hd__a31oi_1
x107 __217__ __218__ VGND VNB VPB VPWR __219__ sky130_fd_sc_hd__nor2_1
x108 counter.4 __217__ VGND VNB VPB VPWR __220__ sky130_fd_sc_hd__nand2_1
x109 counter.4 __217__ VGND VNB VPB VPWR __221__ sky130_fd_sc_hd__xor2_1
x110 counter.5 __220__ VGND VNB VPB VPWR __222__ sky130_fd_sc_hd__xnor2_1
x111 counter.6 counter.5 counter.4 __217__ VGND VNB VPB VPWR __223__ sky130_fd_sc_hd__nand4_1
x112 counter.5 counter.4 __217__ counter.6 VGND VNB VPB VPWR __224__ sky130_fd_sc_hd__a31oi_1
x113 __223__ __224__ VGND VNB VPB VPWR __225__ sky130_fd_sc_hd__lpflow_isobufsrc_1
x114 counter.7 __223__ VGND VNB VPB VPWR __226__ sky130_fd_sc_hd__xnor2_1
x115 reset VGND VNB VPB VPWR __227__ sky130_fd_sc_hd__clkinv_1
x116 reset VGND VNB VPB VPWR __228__ sky130_fd_sc_hd__clkinv_1
x117 reset VGND VNB VPB VPWR __229__ sky130_fd_sc_hd__clkinv_1
x118 reset VGND VNB VPB VPWR __230__ sky130_fd_sc_hd__clkinv_1
x119 reset VGND VNB VPB VPWR __231__ sky130_fd_sc_hd__clkinv_1
x120 reset VGND VNB VPB VPWR __232__ sky130_fd_sc_hd__clkinv_1
x121 reset VGND VNB VPB VPWR __233__ sky130_fd_sc_hd__clkinv_1
x122 reset VGND VNB VPB VPWR __234__ sky130_fd_sc_hd__clkinv_1
x123 reset VGND VNB VPB VPWR __235__ sky130_fd_sc_hd__clkinv_1
x124 reset VGND VNB VPB VPWR __236__ sky130_fd_sc_hd__clkinv_1
x125 reset VGND VNB VPB VPWR __237__ sky130_fd_sc_hd__clkinv_1
x126 reset VGND VNB VPB VPWR __238__ sky130_fd_sc_hd__clkinv_1
x127 reset VGND VNB VPB VPWR __239__ sky130_fd_sc_hd__clkinv_1
x128 reset VGND VNB VPB VPWR __240__ sky130_fd_sc_hd__clkinv_1
x129 reset VGND VNB VPB VPWR __241__ sky130_fd_sc_hd__clkinv_1
x130 reset VGND VNB VPB VPWR __242__ sky130_fd_sc_hd__clkinv_1
x131 reset VGND VNB VPB VPWR __243__ sky130_fd_sc_hd__clkinv_1
x132 reset VGND VNB VPB VPWR __244__ sky130_fd_sc_hd__clkinv_1
x133 reset VGND VNB VPB VPWR __245__ sky130_fd_sc_hd__clkinv_1
x134 reset VGND VNB VPB VPWR __246__ sky130_fd_sc_hd__clkinv_1
x135 reset VGND VNB VPB VPWR __247__ sky130_fd_sc_hd__clkinv_1
x136 reset VGND VNB VPB VPWR __248__ sky130_fd_sc_hd__clkinv_1
x137 reset VGND VNB VPB VPWR __249__ sky130_fd_sc_hd__clkinv_1
x138 reset VGND VNB VPB VPWR __250__ sky130_fd_sc_hd__clkinv_1
x139 reset VGND VNB VPB VPWR __251__ sky130_fd_sc_hd__clkinv_1
x140 reset VGND VNB VPB VPWR __252__ sky130_fd_sc_hd__clkinv_1
x141 reset VGND VNB VPB VPWR __253__ sky130_fd_sc_hd__clkinv_1
x142 reset VGND VNB VPB VPWR __254__ sky130_fd_sc_hd__clkinv_1
x143 reset VGND VNB VPB VPWR __255__ sky130_fd_sc_hd__clkinv_1
x144 reset VGND VNB VPB VPWR __256__ sky130_fd_sc_hd__clkinv_1
x145 reset VGND VNB VPB VPWR __257__ sky130_fd_sc_hd__clkinv_1
x146 reset VGND VNB VPB VPWR __258__ sky130_fd_sc_hd__clkinv_1
x147 reset VGND VNB VPB VPWR __259__ sky130_fd_sc_hd__clkinv_1
x148 reset VGND VNB VPB VPWR __260__ sky130_fd_sc_hd__clkinv_1
x149 reset VGND VNB VPB VPWR __261__ sky130_fd_sc_hd__clkinv_1
x150 reset VGND VNB VPB VPWR __262__ sky130_fd_sc_hd__clkinv_1
x151 reset VGND VNB VPB VPWR __263__ sky130_fd_sc_hd__clkinv_1
x152 reset VGND VNB VPB VPWR __264__ sky130_fd_sc_hd__clkinv_1
x153 reset VGND VNB VPB VPWR __265__ sky130_fd_sc_hd__clkinv_1
x154 reset VGND VNB VPB VPWR __266__ sky130_fd_sc_hd__clkinv_1
x155 reset VGND VNB VPB VPWR __267__ sky130_fd_sc_hd__clkinv_1
x156 reset VGND VNB VPB VPWR __268__ sky130_fd_sc_hd__clkinv_1
x157 reset VGND VNB VPB VPWR __269__ sky130_fd_sc_hd__clkinv_1
x158 reset VGND VNB VPB VPWR __270__ sky130_fd_sc_hd__clkinv_1
x159 reset VGND VNB VPB VPWR __271__ sky130_fd_sc_hd__clkinv_1
x160 reset VGND VNB VPB VPWR __272__ sky130_fd_sc_hd__clkinv_1
x161 reset VGND VNB VPB VPWR __273__ sky130_fd_sc_hd__clkinv_1
x162 reset VGND VNB VPB VPWR __274__ sky130_fd_sc_hd__clkinv_1
x163 reset VGND VNB VPB VPWR __275__ sky130_fd_sc_hd__clkinv_1
x164 reset VGND VNB VPB VPWR __276__ sky130_fd_sc_hd__clkinv_1
x165 reset VGND VNB VPB VPWR __277__ sky130_fd_sc_hd__clkinv_1
x166 reset VGND VNB VPB VPWR __278__ sky130_fd_sc_hd__clkinv_1
x167 reset VGND VNB VPB VPWR __279__ sky130_fd_sc_hd__clkinv_1
x168 reset VGND VNB VPB VPWR __280__ sky130_fd_sc_hd__clkinv_1
x169 reset VGND VNB VPB VPWR __281__ sky130_fd_sc_hd__clkinv_1
x170 reset VGND VNB VPB VPWR __282__ sky130_fd_sc_hd__clkinv_1
x171 reset VGND VNB VPB VPWR __283__ sky130_fd_sc_hd__clkinv_1
x172 reset VGND VNB VPB VPWR __284__ sky130_fd_sc_hd__clkinv_1
x173 reset VGND VNB VPB VPWR __285__ sky130_fd_sc_hd__clkinv_1
x174 reset VGND VNB VPB VPWR __286__ sky130_fd_sc_hd__clkinv_1
x175 reset VGND VNB VPB VPWR __287__ sky130_fd_sc_hd__clkinv_1
x176 reset VGND VNB VPB VPWR __288__ sky130_fd_sc_hd__clkinv_1
x177 reset VGND VNB VPB VPWR __289__ sky130_fd_sc_hd__clkinv_1
x178 reset VGND VNB VPB VPWR __290__ sky130_fd_sc_hd__clkinv_1
x179 reset VGND VNB VPB VPWR __291__ sky130_fd_sc_hd__clkinv_1
x180 reset VGND VNB VPB VPWR __292__ sky130_fd_sc_hd__clkinv_1
x181 reset VGND VNB VPB VPWR __293__ sky130_fd_sc_hd__clkinv_1
x182 reset VGND VNB VPB VPWR __294__ sky130_fd_sc_hd__clkinv_1
x183 reset VGND VNB VPB VPWR __295__ sky130_fd_sc_hd__clkinv_1
x184 reset VGND VNB VPB VPWR __296__ sky130_fd_sc_hd__clkinv_1
x185 reset VGND VNB VPB VPWR __297__ sky130_fd_sc_hd__clkinv_1
x186 reset VGND VNB VPB VPWR __298__ sky130_fd_sc_hd__clkinv_1
x187 reset VGND VNB VPB VPWR __299__ sky130_fd_sc_hd__clkinv_1
x188 reset VGND VNB VPB VPWR __300__ sky130_fd_sc_hd__clkinv_1
x189 reset VGND VNB VPB VPWR __301__ sky130_fd_sc_hd__clkinv_1
x190 reset VGND VNB VPB VPWR __302__ sky130_fd_sc_hd__clkinv_1
x191 reset VGND VNB VPB VPWR __303__ sky130_fd_sc_hd__clkinv_1
x192 reset VGND VNB VPB VPWR __304__ sky130_fd_sc_hd__clkinv_1
x193 reset VGND VNB VPB VPWR __305__ sky130_fd_sc_hd__clkinv_1
x194 reset VGND VNB VPB VPWR __306__ sky130_fd_sc_hd__clkinv_1
x195 reset VGND VNB VPB VPWR __307__ sky130_fd_sc_hd__clkinv_1
x196 reset VGND VNB VPB VPWR __308__ sky130_fd_sc_hd__clkinv_1
x197 reset VGND VNB VPB VPWR __309__ sky130_fd_sc_hd__clkinv_1
x198 reset VGND VNB VPB VPWR __310__ sky130_fd_sc_hd__clkinv_1
x199 reset VGND VNB VPB VPWR __311__ sky130_fd_sc_hd__clkinv_1
x200 reset VGND VNB VPB VPWR __312__ sky130_fd_sc_hd__clkinv_1
x201 reset VGND VNB VPB VPWR __313__ sky130_fd_sc_hd__clkinv_1
x202 reset VGND VNB VPB VPWR __314__ sky130_fd_sc_hd__clkinv_1
x203 reset VGND VNB VPB VPWR __315__ sky130_fd_sc_hd__clkinv_1
x204 reset VGND VNB VPB VPWR __316__ sky130_fd_sc_hd__clkinv_1
x205 reset VGND VNB VPB VPWR __317__ sky130_fd_sc_hd__clkinv_1
x206 reset VGND VNB VPB VPWR __318__ sky130_fd_sc_hd__clkinv_1
x207 reset VGND VNB VPB VPWR __319__ sky130_fd_sc_hd__clkinv_1
x208 reset VGND VNB VPB VPWR __320__ sky130_fd_sc_hd__clkinv_1
x209 reset VGND VNB VPB VPWR __321__ sky130_fd_sc_hd__clkinv_1
x210 reset VGND VNB VPB VPWR __322__ sky130_fd_sc_hd__clkinv_1
x211 reset VGND VNB VPB VPWR __323__ sky130_fd_sc_hd__clkinv_1
x212 clk __213__ __96__ VGND VNB VPB VPWR stored_values.72 sky130_fd_sc_hd__dfrtp_1
x213 clk __211__ __227__ VGND VNB VPB VPWR stored_values.73 sky130_fd_sc_hd__dfrtp_1
x214 clk __210__ __228__ VGND VNB VPB VPWR stored_values.74 sky130_fd_sc_hd__dfrtp_1
x215 clk __209__ __229__ VGND VNB VPB VPWR stored_values.75 sky130_fd_sc_hd__dfrtp_1
x216 clk __208__ __230__ VGND VNB VPB VPWR stored_values.76 sky130_fd_sc_hd__dfrtp_1
x217 clk __207__ __231__ VGND VNB VPB VPWR stored_values.77 sky130_fd_sc_hd__dfrtp_1
x218 clk __206__ __232__ VGND VNB VPB VPWR stored_values.78 sky130_fd_sc_hd__dfrtp_1
x219 clk __205__ __233__ VGND VNB VPB VPWR stored_values.79 sky130_fd_sc_hd__dfrtp_1
x220 clk __202__ __234__ VGND VNB VPB VPWR stored_values.64 sky130_fd_sc_hd__dfrtp_1
x221 clk __200__ __235__ VGND VNB VPB VPWR stored_values.65 sky130_fd_sc_hd__dfrtp_1
x222 clk __199__ __236__ VGND VNB VPB VPWR stored_values.66 sky130_fd_sc_hd__dfrtp_1
x223 clk __198__ __237__ VGND VNB VPB VPWR stored_values.67 sky130_fd_sc_hd__dfrtp_1
x224 clk __197__ __238__ VGND VNB VPB VPWR stored_values.68 sky130_fd_sc_hd__dfrtp_1
x225 clk __196__ __239__ VGND VNB VPB VPWR stored_values.69 sky130_fd_sc_hd__dfrtp_1
x226 clk __195__ __240__ VGND VNB VPB VPWR stored_values.70 sky130_fd_sc_hd__dfrtp_1
x227 clk __194__ __241__ VGND VNB VPB VPWR stored_values.71 sky130_fd_sc_hd__dfrtp_1
x228 clk __191__ __242__ VGND VNB VPB VPWR stored_values.56 sky130_fd_sc_hd__dfrtp_1
x229 clk __189__ __243__ VGND VNB VPB VPWR stored_values.57 sky130_fd_sc_hd__dfrtp_1
x230 clk __188__ __244__ VGND VNB VPB VPWR stored_values.58 sky130_fd_sc_hd__dfrtp_1
x231 clk __187__ __245__ VGND VNB VPB VPWR stored_values.59 sky130_fd_sc_hd__dfrtp_1
x232 clk __186__ __246__ VGND VNB VPB VPWR stored_values.60 sky130_fd_sc_hd__dfrtp_1
x233 clk __185__ __247__ VGND VNB VPB VPWR stored_values.61 sky130_fd_sc_hd__dfrtp_1
x234 clk __184__ __248__ VGND VNB VPB VPWR stored_values.62 sky130_fd_sc_hd__dfrtp_1
x235 clk __183__ __249__ VGND VNB VPB VPWR stored_values.63 sky130_fd_sc_hd__dfrtp_1
x236 clk __180__ __250__ VGND VNB VPB VPWR stored_values.48 sky130_fd_sc_hd__dfrtp_1
x237 clk __178__ __251__ VGND VNB VPB VPWR stored_values.49 sky130_fd_sc_hd__dfrtp_1
x238 clk __177__ __252__ VGND VNB VPB VPWR stored_values.50 sky130_fd_sc_hd__dfrtp_1
x239 clk __176__ __253__ VGND VNB VPB VPWR stored_values.51 sky130_fd_sc_hd__dfrtp_1
x240 clk __175__ __254__ VGND VNB VPB VPWR stored_values.52 sky130_fd_sc_hd__dfrtp_1
x241 clk __174__ __255__ VGND VNB VPB VPWR stored_values.53 sky130_fd_sc_hd__dfrtp_1
x242 clk __173__ __256__ VGND VNB VPB VPWR stored_values.54 sky130_fd_sc_hd__dfrtp_1
x243 clk __172__ __257__ VGND VNB VPB VPWR stored_values.55 sky130_fd_sc_hd__dfrtp_1
x244 clk __169__ __258__ VGND VNB VPB VPWR stored_values.40 sky130_fd_sc_hd__dfrtp_1
x245 clk __167__ __259__ VGND VNB VPB VPWR stored_values.41 sky130_fd_sc_hd__dfrtp_1
x246 clk __166__ __260__ VGND VNB VPB VPWR stored_values.42 sky130_fd_sc_hd__dfrtp_1
x247 clk __165__ __261__ VGND VNB VPB VPWR stored_values.43 sky130_fd_sc_hd__dfrtp_1
x248 clk __164__ __262__ VGND VNB VPB VPWR stored_values.44 sky130_fd_sc_hd__dfrtp_1
x249 clk __163__ __263__ VGND VNB VPB VPWR stored_values.45 sky130_fd_sc_hd__dfrtp_1
x250 clk __162__ __264__ VGND VNB VPB VPWR stored_values.46 sky130_fd_sc_hd__dfrtp_1
x251 clk __161__ __265__ VGND VNB VPB VPWR stored_values.47 sky130_fd_sc_hd__dfrtp_1
x252 clk __158__ __266__ VGND VNB VPB VPWR stored_values.32 sky130_fd_sc_hd__dfrtp_1
x253 clk __156__ __267__ VGND VNB VPB VPWR stored_values.33 sky130_fd_sc_hd__dfrtp_1
x254 clk __155__ __268__ VGND VNB VPB VPWR stored_values.34 sky130_fd_sc_hd__dfrtp_1
x255 clk __154__ __269__ VGND VNB VPB VPWR stored_values.35 sky130_fd_sc_hd__dfrtp_1
x256 clk __153__ __270__ VGND VNB VPB VPWR stored_values.36 sky130_fd_sc_hd__dfrtp_1
x257 clk __152__ __271__ VGND VNB VPB VPWR stored_values.37 sky130_fd_sc_hd__dfrtp_1
x258 clk __151__ __272__ VGND VNB VPB VPWR stored_values.38 sky130_fd_sc_hd__dfrtp_1
x259 clk __150__ __273__ VGND VNB VPB VPWR stored_values.39 sky130_fd_sc_hd__dfrtp_1
x260 clk comp.0 __274__ VGND VNB VPB VPWR comp_prev.0 sky130_fd_sc_hd__dfrtp_1
x261 clk comp.1 __275__ VGND VNB VPB VPWR comp_prev.1 sky130_fd_sc_hd__dfrtp_1
x262 clk comp.2 __276__ VGND VNB VPB VPWR comp_prev.2 sky130_fd_sc_hd__dfrtp_1
x263 clk comp.3 __277__ VGND VNB VPB VPWR comp_prev.3 sky130_fd_sc_hd__dfrtp_1
x264 clk comp.4 __278__ VGND VNB VPB VPWR comp_prev.4 sky130_fd_sc_hd__dfrtp_1
x265 clk comp.5 __279__ VGND VNB VPB VPWR comp_prev.5 sky130_fd_sc_hd__dfrtp_1
x266 clk comp.6 __280__ VGND VNB VPB VPWR comp_prev.6 sky130_fd_sc_hd__dfrtp_1
x267 clk comp.7 __281__ VGND VNB VPB VPWR comp_prev.7 sky130_fd_sc_hd__dfrtp_1
x268 clk comp.8 __282__ VGND VNB VPB VPWR comp_prev.8 sky130_fd_sc_hd__dfrtp_1
x269 clk comp.9 __283__ VGND VNB VPB VPWR comp_prev.9 sky130_fd_sc_hd__dfrtp_1
x270 clk __147__ __284__ VGND VNB VPB VPWR stored_values.24 sky130_fd_sc_hd__dfrtp_1
x271 clk __145__ __285__ VGND VNB VPB VPWR stored_values.25 sky130_fd_sc_hd__dfrtp_1
x272 clk __144__ __286__ VGND VNB VPB VPWR stored_values.26 sky130_fd_sc_hd__dfrtp_1
x273 clk __143__ __287__ VGND VNB VPB VPWR stored_values.27 sky130_fd_sc_hd__dfrtp_1
x274 clk __142__ __288__ VGND VNB VPB VPWR stored_values.28 sky130_fd_sc_hd__dfrtp_1
x275 clk __141__ __289__ VGND VNB VPB VPWR stored_values.29 sky130_fd_sc_hd__dfrtp_1
x276 clk __140__ __290__ VGND VNB VPB VPWR stored_values.30 sky130_fd_sc_hd__dfrtp_1
x277 clk __139__ __291__ VGND VNB VPB VPWR stored_values.31 sky130_fd_sc_hd__dfrtp_1
x278 clk __136__ __292__ VGND VNB VPB VPWR stored_values.16 sky130_fd_sc_hd__dfrtp_1
x279 clk __134__ __293__ VGND VNB VPB VPWR stored_values.17 sky130_fd_sc_hd__dfrtp_1
x280 clk __133__ __294__ VGND VNB VPB VPWR stored_values.18 sky130_fd_sc_hd__dfrtp_1
x281 clk __132__ __295__ VGND VNB VPB VPWR stored_values.19 sky130_fd_sc_hd__dfrtp_1
x282 clk __131__ __296__ VGND VNB VPB VPWR stored_values.20 sky130_fd_sc_hd__dfrtp_1
x283 clk __130__ __297__ VGND VNB VPB VPWR stored_values.21 sky130_fd_sc_hd__dfrtp_1
x284 clk __129__ __298__ VGND VNB VPB VPWR stored_values.22 sky130_fd_sc_hd__dfrtp_1
x285 clk __128__ __299__ VGND VNB VPB VPWR stored_values.23 sky130_fd_sc_hd__dfrtp_1
x286 clk __125__ __300__ VGND VNB VPB VPWR stored_values.8 sky130_fd_sc_hd__dfrtp_1
x287 clk __123__ __301__ VGND VNB VPB VPWR stored_values.9 sky130_fd_sc_hd__dfrtp_1
x288 clk __122__ __302__ VGND VNB VPB VPWR stored_values.10 sky130_fd_sc_hd__dfrtp_1
x289 clk __121__ __303__ VGND VNB VPB VPWR stored_values.11 sky130_fd_sc_hd__dfrtp_1
x290 clk __120__ __304__ VGND VNB VPB VPWR stored_values.12 sky130_fd_sc_hd__dfrtp_1
x291 clk __119__ __305__ VGND VNB VPB VPWR stored_values.13 sky130_fd_sc_hd__dfrtp_1
x292 clk __118__ __306__ VGND VNB VPB VPWR stored_values.14 sky130_fd_sc_hd__dfrtp_1
x293 clk __117__ __307__ VGND VNB VPB VPWR stored_values.15 sky130_fd_sc_hd__dfrtp_1
x294 clk __114__ __308__ VGND VNB VPB VPWR stored_values.0 sky130_fd_sc_hd__dfrtp_1
x295 clk __112__ __309__ VGND VNB VPB VPWR stored_values.1 sky130_fd_sc_hd__dfrtp_1
x296 clk __110__ __310__ VGND VNB VPB VPWR stored_values.2 sky130_fd_sc_hd__dfrtp_1
x297 clk __108__ __311__ VGND VNB VPB VPWR stored_values.3 sky130_fd_sc_hd__dfrtp_1
x298 clk __106__ __312__ VGND VNB VPB VPWR stored_values.4 sky130_fd_sc_hd__dfrtp_1
x299 clk __104__ __313__ VGND VNB VPB VPWR stored_values.5 sky130_fd_sc_hd__dfrtp_1
x300 clk __102__ __314__ VGND VNB VPB VPWR stored_values.6 sky130_fd_sc_hd__dfrtp_1
x301 clk __100__ __315__ VGND VNB VPB VPWR stored_values.7 sky130_fd_sc_hd__dfrtp_1
x302 clk __95__ __316__ VGND VNB VPB VPWR counter.0 sky130_fd_sc_hd__dfrtp_1
x303 clk __215__ __317__ VGND VNB VPB VPWR counter.1 sky130_fd_sc_hd__dfrtp_1
x304 clk __216__ __318__ VGND VNB VPB VPWR counter.2 sky130_fd_sc_hd__dfrtp_1
x305 clk __219__ __319__ VGND VNB VPB VPWR counter.3 sky130_fd_sc_hd__dfrtp_1
x306 clk __221__ __320__ VGND VNB VPB VPWR counter.4 sky130_fd_sc_hd__dfrtp_1
x307 clk __222__ __321__ VGND VNB VPB VPWR counter.5 sky130_fd_sc_hd__dfrtp_1
x308 clk __225__ __322__ VGND VNB VPB VPWR counter.6 sky130_fd_sc_hd__dfrtp_1
x309 clk __226__ __323__ VGND VNB VPB VPWR counter.7 sky130_fd_sc_hd__dfrtp_1

* Tieoffs

.ends

