* counter.spice
* File autogenerated by json2spice.py

* Standard Cell Includes
.include /foss/pdk/sky130A/libs.ref/sky130_fd_sc_hd/spice/sky130_fd_sc_hd.spice
.include /foss/pdk/sky130A/libs.ref/sky130_fd_sc_hd/spice/sky130_fd_sc_hd.spice
.include /foss/pdk/sky130A/libs.ref/sky130_fd_sc_hd/spice/sky130_fd_sc_hd.spice
.include /foss/pdk/sky130A/libs.ref/sky130_fd_sc_hd/spice/sky130_fd_sc_hd.spice
.include /foss/pdk/sky130A/libs.ref/sky130_fd_sc_hd/spice/sky130_fd_sc_hd.spice
.include /foss/pdk/sky130A/libs.ref/sky130_fd_sc_hd/spice/sky130_fd_sc_hd.spice
.include /foss/pdk/sky130A/libs.ref/sky130_fd_sc_hd/spice/sky130_fd_sc_hd.spice
.include /foss/pdk/sky130A/libs.ref/sky130_fd_sc_hd/spice/sky130_fd_sc_hd.spice
.include /foss/pdk/sky130A/libs.ref/sky130_fd_sc_hd/spice/sky130_fd_sc_hd.spice

* Subcircuit Definition
.subckt counter Clk Rst Cnt_en Cnt.0 Cnt.1 Cnt.2 Cnt.3 Cnt.4 Cnt.5 Cnt.6 Cnt.7 VGND VNB VPB VPWR

* Standard Cells
x__0__ Cnt_en Cnt.1 Cnt.0 VGND VNB VPB VPWR __13__ sky130_fd_sc_hd__and3_1
x__1__ Cnt.2 Cnt_en Cnt.1 Cnt.0 VGND VNB VPB VPWR __14__ sky130_fd_sc_hd__and4_1
x__2__ Cnt.3 __14__ VGND VNB VPB VPWR __15__ sky130_fd_sc_hd__and2_0
x__3__ Cnt.3 __14__ VGND VNB VPB VPWR __16__ sky130_fd_sc_hd__nor2_1
x__4__ Rst __15__ __16__ VGND VNB VPB VPWR __17__ sky130_fd_sc_hd__nor3_1
x__5__ Cnt.4 __15__ Rst VGND VNB VPB VPWR __18__ sky130_fd_sc_hd__o21bai_1
x__6__ Cnt.4 __15__ __18__ VGND VNB VPB VPWR __19__ sky130_fd_sc_hd__a21oi_1
x__7__ Cnt.5 Cnt.4 Cnt.3 __14__ VGND VNB VPB VPWR __20__ sky130_fd_sc_hd__and4_1
x__8__ Cnt.4 __15__ Cnt.5 VGND VNB VPB VPWR __21__ sky130_fd_sc_hd__a21oi_1
x__9__ Rst __20__ __21__ VGND VNB VPB VPWR __22__ sky130_fd_sc_hd__nor3_1
x__10__ Cnt.6 __20__ Rst VGND VNB VPB VPWR __23__ sky130_fd_sc_hd__o21bai_1
x__11__ Cnt.6 __20__ __23__ VGND VNB VPB VPWR __24__ sky130_fd_sc_hd__a21oi_1
x__12__ Cnt.7 Cnt.6 __20__ VGND VNB VPB VPWR __25__ sky130_fd_sc_hd__and3_1
x__13__ Cnt.6 __20__ Cnt.7 VGND VNB VPB VPWR __26__ sky130_fd_sc_hd__a21oi_1
x__14__ Rst __25__ __26__ VGND VNB VPB VPWR __27__ sky130_fd_sc_hd__nor3_1
x__15__ Cnt_en Cnt.0 Rst VGND VNB VPB VPWR __28__ sky130_fd_sc_hd__a21oi_1
x__16__ Cnt_en Cnt.0 __28__ VGND VNB VPB VPWR __29__ sky130_fd_sc_hd__o21a_1
x__17__ Cnt_en Cnt.0 Cnt.1 VGND VNB VPB VPWR __30__ sky130_fd_sc_hd__a21oi_1
x__18__ Rst __13__ __30__ VGND VNB VPB VPWR __31__ sky130_fd_sc_hd__nor3_1
x__19__ Cnt.2 __13__ VGND VNB VPB VPWR __32__ sky130_fd_sc_hd__nor2_1
x__20__ Rst __14__ __32__ VGND VNB VPB VPWR __33__ sky130_fd_sc_hd__nor3_1
x__21__ Clk __17__ VGND VNB VPB VPWR Cnt.3 sky130_fd_sc_hd__dfxtp_1
x__22__ Clk __19__ VGND VNB VPB VPWR Cnt.4 sky130_fd_sc_hd__dfxtp_1
x__23__ Clk __22__ VGND VNB VPB VPWR Cnt.5 sky130_fd_sc_hd__dfxtp_1
x__24__ Clk __24__ VGND VNB VPB VPWR Cnt.6 sky130_fd_sc_hd__dfxtp_1
x__25__ Clk __27__ VGND VNB VPB VPWR Cnt.7 sky130_fd_sc_hd__dfxtp_1
x__26__ Clk __29__ VGND VNB VPB VPWR Cnt.0 sky130_fd_sc_hd__dfxtp_1
x__27__ Clk __31__ VGND VNB VPB VPWR Cnt.1 sky130_fd_sc_hd__dfxtp_1
x__28__ Clk __33__ VGND VNB VPB VPWR Cnt.2 sky130_fd_sc_hd__dfxtp_1

* Tieoffs

.ends

